glm/R1-12.47-3.glm

<!DOCTYPE html>
<!-- Server: sfs-forge-5 -->


    





















<!--[if lt IE 7 ]> <html lang="en" class="no-js ie6"> <![endif]-->
<!--[if IE 7 ]>    <html lang="en" class="no-js ie7"> <![endif]-->
<!--[if IE 8 ]>    <html lang="en" class="no-js ie8"> <![endif]-->
<!--[if IE 9 ]>    <html lang="en" class="no-js ie9"> <![endif]-->
<!--[if (gt IE 9)|!(IE)]>-->
<html lang="en" class="no-js"> <!--<![endif]-->
<head>
    <meta content="text/html; charset=UTF-8" http-equiv="content-type"/>
    <title>
  GridLAB-D / Code /
  [r5643]
  /Taxonomy_Feeders/R1-12.47-3.glm
</title>
    

<meta name="viewport" content="width=1100">


<link rel="icon" sizes="180x180" href="https://a.fsdn.com/allura/nf/1568656117/_ew_/theme/sftheme/images/sandiego/logo-180x180.png" type="image/png">
<link rel="icon" sizes="any" href="https://a.fsdn.com/allura/nf/1568656117/_ew_/theme/sftheme/images/sandiego/svg/originals/sf-icon-orange-no_sf.svg" type="image/svg+xml">
<link rel="apple-touch-icon" sizes="180x180" href="https://a.fsdn.com/allura/nf/1568656117/_ew_/theme/sftheme/images/sandiego/logo-180x180.png">
<link rel="mask-icon" href="https://a.fsdn.com/allura/nf/1568656117/_ew_/theme/sftheme/images/sandiego/svg/originals/sf-icon-orange-no_sf.svg" color="#FF6600">

<!--[if lt IE 7 ]>
  <script src="https://a.fsdn.com/allura/nf/1568656117/_ew_/theme/sftheme/js/sftheme/vendor/dd_belatedpng.js"></script>
  <script> DD_belatedPNG.fix('img, .png_bg'); //fix any <img> or .png_bg background-images </script>
<![endif]-->
<link href='//fonts.googleapis.com/css?family=Lato:400,700' rel='stylesheet'>
<script>
if (!window.SF) { window.SF = {}; }
SF.sandiego = false;
SF.sandiego_chrome = true;
SF.cdn = "https://a.fsdn.com/con";
</script>
    
        <!-- ew:head_css -->

    
        <link rel="stylesheet"
                type="text/css"
                href="https://a.fsdn.com/allura/nf/1568656117/_ew_/_slim/css?href=allura%2Fcss%2Fforge%2Fhilite.css%3Ballura%2Fcss%2Fforge%2Ftooltipster.css"
                >
    
        <link rel="stylesheet"
                type="text/css"
                href="https://a.fsdn.com/allura/nf/1568656117/_ew_/allura/css/font-awesome.min.css"
                >
    
        <link rel="stylesheet"
                type="text/css"
                href="https://a.fsdn.com/allura/nf/1568656117/_ew_/theme/sftheme/css/forge.css"
                >
    
        
<!-- /ew:head_css -->

    
    
        <!-- ew:head_js -->

    
        <script type="text/javascript" src="https://a.fsdn.com/allura/nf/1568656117/_ew_/_slim/js?href=allura%2Fjs%2Fjquery-base.js%3Btheme%2Fsftheme%2Fjs%2Fsftheme%2Fvendor%2Fpromise.polyfill.min.js%3Btheme%2Fsftheme%2Fjs%2Fsftheme%2Fcmp.js%3Btheme%2Fsftheme%2Fjs%2Fsftheme%2Fvendor%2Fmodernizr.3.3.1.custom.js%3Btheme%2Fsftheme%2Fjs%2Fsftheme%2Fshared_head.js%3Btheme%2Fsftheme%2Fjs%2Fsftheme%2Ftypescript%2Fcompliance.js"></script>
    
        
<!-- /ew:head_js -->

    

    
        <style type="text/css">
            /* make URL & Project custom fields in support tickets not get hidden as much */
.project-forge.mountpoint-site-support .view_holder .grid-4:nth-child(5),
.project-forge.mountpoint-site-support .view_holder .grid-4:nth-child(6) {
  overflow: visible;
}
        </style>
    
    
    <link rel="alternate" type="application/rss+xml" title="RSS" href="/p/gridlab-d/code/feed.rss"/>
    <link rel="alternate" type="application/atom+xml" title="Atom" href="/p/gridlab-d/code/feed.atom"/>
    <style type="text/css">
        #access_urls .btn-set {
            
            min-width: 14em;
        }
    </style>

    <style>.XFUeVrzkzQBAgBLhpxgvM {
        display: none
    }</style>

    
    
    
    


<script type="text/javascript">
    
    (function(i,s,o,g,r,a,m){i['GoogleAnalyticsObject']=r;i[r]=i[r]||function(){
            (i[r].q=i[r].q||[]).push(arguments)},i[r].l=1*new Date();a=s.createElement(o),
        m=s.getElementsByTagName(o)[0];a.async=1;a.src=g;m.parentNode.insertBefore(a,m)
    })(window,document,'script','//www.google-analytics.com/analytics.js','ga');
        ga('create', "UA-36130941-1", {cookieDomain: 'auto', 'name': 'sfnt1','sampleRate': 9});
          
            ga('sfnt1.set', 'dimension9', 'gridlab-d');
            ga('sfnt1.set', 'dimension10', 'svn');
            
          ga('sfnt1.set', 'dimension13', 'Logged Out');
        ga('sfnt1.send', 'pageview');
    
    

</script>
    






<script>
    function initPiwik(){
      var _paq = window._paq = window._paq || [];
      _paq.push(['trackPageView', document.title, {
            dimension1: 'gridlab-d',
            dimension2: 'svn'
      }]);
      _paq.push(['enableLinkTracking']);
      (function() {
        var u="//analytics.slashdotmedia.com/";
        _paq.push(['setTrackerUrl', u+'sf.php']);
        _paq.push(['setSiteId', 39]);
        var d=document, g=d.createElement('script'), s=d.getElementsByTagName('script')[0];
        g.type='text/javascript'; g.async=true; g.defer=true; g.src=u+'sf.js'; s.parentNode.insertBefore(g,s);
      })();
    }
    bizx.cmp.ifConsent('publisher', ['storage', 'measurement'], initPiwik);
</script>



</head>

<body class="
body_class sandiego_chrome  legacy_chrome  l-allow-natural-width 
" id="forge">

    
        <!-- ew:body_top_js -->

    
        
<!-- /ew:body_top_js -->

    





<div class="off-canvas position-right" id="offCanvas" data-off-canvas>
    <!-- Menu -->
    <ul class="header-nav-menulist">
        <li class="highlight social row">
            <span class="social-label">Connect</span>
            <span class="social-icons">
                
<span></span>
<a href="https://twitter.com/sourceforge" class="twitter" rel="nofollow" target="_blank">

<svg  viewBox="0 0 1792 1792" xmlns="http://www.w3.org/2000/svg"><path d="M1684 408q-67 98-162 167 1 14 1 42 0 130-38 259.5t-115.5 248.5-184.5 210.5-258 146-323 54.5q-271 0-496-145 35 4 78 4 225 0 401-138-105-2-188-64.5t-114-159.5q33 5 61 5 43 0 85-11-112-23-185.5-111.5t-73.5-205.5v-4q68 38 146 41-66-44-105-115t-39-154q0-88 44-163 121 149 294.5 238.5t371.5 99.5q-8-38-8-74 0-134 94.5-228.5t228.5-94.5q140 0 236 102 109-21 205-78-37 115-142 178 93-10 186-50z"/></svg></a>
<a href="https://www.facebook.com/sourceforgenet/" class="facebook" rel="nofollow" target="_blank">

<svg  viewBox="0 0 1792 1792" xmlns="http://www.w3.org/2000/svg"><path d="M1343 12v264h-157q-86 0-116 36t-30 108v189h293l-39 296h-254v759h-306v-759h-255v-296h255v-218q0-186 104-288.5t277-102.5q147 0 228 12z"/></svg></a>
<a href="https://www.linkedin.com/company/sourceforge.net" class="linkedin" rel="nofollow" target="_blank">

<svg  viewBox="0 0 1792 1792" xmlns="http://www.w3.org/2000/svg"><path d="M477 625v991h-330v-991h330zm21-306q1 73-50.5 122t-135.5 49h-2q-82 0-132-49t-50-122q0-74 51.5-122.5t134.5-48.5 133 48.5 51 122.5zm1166 729v568h-329v-530q0-105-40.5-164.5t-126.5-59.5q-63 0-105.5 34.5t-63.5 85.5q-11 30-11 81v553h-329q2-399 2-647t-1-296l-1-48h329v144h-2q20-32 41-56t56.5-52 87-43.5 114.5-15.5q171 0 275 113.5t104 332.5z"/></svg></a>
<a href="/user/newsletters" rel=nofollow class="newsletter" title="Subscribe to our newsletter">

<svg  version="1.1"  xmlns="http://www.w3.org/2000/svg" xmlns:xlink="http://www.w3.org/1999/xlink" x="0px" y="0px" viewBox="0 0 42 42" enable-background="new 0 0 42 42" xml:space="preserve"><path fill="#FFFFFF" d="M0,6v30h42V6H0z M24.2,21.2c-0.8,0.8-2.3,2-3.2,2c-0.9,0-2.4-1.2-3.2-2L5.8,9.7h30.3L24.2,21.2z M13.7,21l-9.9,9.4V11.6L13.7,21z M15.7,23L15.7,23c0.5,0.5,2.9,2.9,5.3,2.9c2.4,0,4.8-2.4,5.2-2.8l0.1-0.1l9.8,9.4H5.8L15.7,23z M28.3,21l9.9-9.5v18.9L28.3,21z"/></svg></a>
<span></span>
            </span>
        </li>
        <li class="highlight search">
            <form method="get" action="/directory/">
    
        <input type="text" placeholder="Search for software or solutions" autocomplete="off" name="q" >
        
        <label>
        <input type="submit" class="bt" value="">
            

<svg  viewBox="0 0 1792 1792" xmlns="http://www.w3.org/2000/svg"><path d="M1216 832q0-185-131.5-316.5t-316.5-131.5-316.5 131.5-131.5 316.5 131.5 316.5 316.5 131.5 316.5-131.5 131.5-316.5zm512 832q0 52-38 90t-90 38q-54 0-90-38l-343-342q-179 124-399 124-143 0-273.5-55.5t-225-150-150-225-55.5-273.5 55.5-273.5 150-225 225-150 273.5-55.5 273.5 55.5 225 150 150 225 55.5 273.5q0 220-124 399l343 343q37 37 37 90z"/></svg>
        </label>
    
    </form>
        </li>
        

    

    
    
    
        <li class="highlight"><a href="/articles/">Articles</a></li>
    
    
        <li class="highlight"><a href="/cloud-storage-providers/">Cloud Storage</a></li>
    
    
        <li class="highlight"><a href="/business-voip/">Business VoIP</a></li>
    
    
    
        <li class="highlight"><a href="/speedtest/">Internet Speed Test</a></li>
    

    

        <li><a href="/directory/">Open Source Software</a></li>
        <li><a href="/software/">Business Software</a></li>
        <li><a href="/blog" title="Blog">Blog</a></li>
        <li><a href="https://deals.sourceforge.net/?utm_source=sourceforge&utm_medium=navbar&utm_campaign=homepage">Deals</a></li>
        <li><a href="/support">Help</a></li>
        
        <li><a href="/create">Create</a></li>
        
        
        <li><a href="">Join/Login</a></li>
        
        <li><a href="/about">About</a></li>
        <li><a href="/top">Top Downloaded Projects</a></li>
        <li><a href="/blog/category/sitestatus/">Site Status</a></li>
        <li><a href="https://twitter.com/sfnet_ops" rel="nofollow">@sfnet_ops</a></li>
        <li><a href="https://twitter.com/sourceforge" rel="nofollow">@sourceforge</a></li>
        <li><a href="https://p.sf.net/sourceforge/docs">Site Documentation</a></li>
        <li><a href="/support">Support Request</a></li>
        <li><a href="https://slashdotmedia.com/terms-of-use/" rel="nofollow">Terms</a></li>
        <li><a href="https://slashdotmedia.com/privacy-statement/" rel="nofollow">Privacy</a></li>
        <li><a href="https://slashdotmedia.com/opt-out-choices/" rel="nofollow">Opt Out</a></li>
        <li><a href="https://slashdotmedia.com/" rel="nofollow">Advertise</a></li>
    </ul>
</div>
<div class="off-canvas-content" data-off-canvas-content>

    


<script>
    SF.linkout_icon = '<svg  version="1.1"  xmlns="http://www.w3.org/2000/svg" xmlns:xlink="http://www.w3.org/1999/xlink" x="0px" y="0px" viewBox="0 0 300 300" style="enable-background:new 0 0 300 300;" xml:space="preserve"><polygon class="st0" points="243.2,243.2 56.8,243.2 56.8,56.8 123,56.8 123,9 9,9 9,291 291,291 291,179.4 243.2,179 "/><polygon class="st0" points="128.5,213 155,186.5 176,165.5 206.7,196.3 235.5,132.5 248.9,102.6 290.6,9.8 291,9 290.6,9.2 197.4,51.1 169.1,63.8 103.7,93.3 137,126.5 115.9,147.5 89.5,174 "/></svg>';
</script>


<div class="l-header-nav  sandiego">

    <section class="sandiego l-header-nav-top show-for-large">
        <div class="row">
            <a href="/" title="Home" class="sf-logo">
                

<svg  version="1.1"  xmlns="http://www.w3.org/2000/svg" xmlns:xlink="http://www.w3.org/1999/xlink" x="0px" y="0px"     viewBox="0 0 653 102.6" style="enable-background:new 0 0 653 102.6;" xml:space="preserve"><path class="st0" d="M66.9,54.5c0-19.1-6.8-27.8-10.4-31.1c-0.7-0.6-1.8-0.1-1.7,0.9c0.7,10.8-12.9,13.5-12.9,30.4h0    c0,0,0,0.1,0,0.1c0,10.3,7.8,18.7,17.4,18.7c9.6,0,17.4-8.4,17.4-18.7c0,0,0-0.1,0-0.1h0c0-4.8-1.8-9.4-3.6-12.8    c-0.4-0.7-1.4-0.4-1.3,0.2C75.1,56.7,66.9,65.7,66.9,54.5z"/><g>    <path class="st0" d="M46.2,94.8c-0.4,0-0.9-0.2-1.2-0.5L0.5,49.8c-0.6-0.6-0.6-1.7,0-2.4l47-47C47.8,0.2,48.2,0,48.6,0h13.5        c0.8,0,1.3,0.5,1.5,1c0.2,0.5,0.2,1.2-0.4,1.8L19.1,47c-0.9,0.9-0.9,2.3,0,3.2L54,85.2c0.6,0.6,0.6,1.7,0,2.4l-6.7,6.8        C47,94.6,46.6,94.8,46.2,94.8z"/></g><g>    <path class="st0" d="M55.1,102.6c-0.8,0-1.3-0.5-1.5-1c-0.2-0.5-0.2-1.2,0.4-1.8l44.2-44.2c0.4-0.4,0.7-1,0.7-1.6        c0-0.6-0.2-1.2-0.7-1.6L63.2,17.4c-0.6-0.6-0.6-1.7,0-2.4l6.8-6.8c0.3-0.3,0.7-0.5,1.2-0.5S72,8,72.3,8.3l44.4,44.5        c0.3,0.3,0.5,0.7,0.5,1.2s-0.2,0.9-0.5,1.2l-47,47c-0.3,0.3-0.7,0.5-1.2,0.5H55.1z"/></g><g>    <g>        <path class="st1" d="M167.2,32c-0.2,0.4-0.5,0.6-1,0.6c-0.3,0-0.7-0.2-1.2-0.7c-0.5-0.5-1.2-1-2-1.5c-0.9-0.6-1.9-1.1-3.2-1.5            c-1.3-0.5-2.9-0.7-4.8-0.7c-1.9,0-3.5,0.3-5,0.8c-1.4,0.5-2.6,1.3-3.6,2.2s-1.7,2-2.2,3.2c-0.5,1.2-0.8,2.5-0.8,3.8            c0,1.8,0.4,3.2,1.1,4.4c0.7,1.1,1.7,2.1,3,2.9c1.2,0.8,2.6,1.5,4.2,2c1.6,0.6,3.2,1.1,4.8,1.6c1.6,0.5,3.2,1.1,4.8,1.8            c1.6,0.6,2.9,1.5,4.2,2.4s2.2,2.2,3,3.6c0.7,1.4,1.1,3.2,1.1,5.3c0,2.2-0.4,4.2-1.1,6.1c-0.7,1.9-1.8,3.6-3.2,5            c-1.4,1.4-3.2,2.5-5.2,3.4c-2.1,0.8-4.4,1.2-7,1.2c-3.4,0-6.4-0.6-8.8-1.8c-2.5-1.2-4.6-2.9-6.5-5l1-1.6c0.3-0.4,0.6-0.5,1-0.5            c0.2,0,0.5,0.1,0.8,0.4c0.3,0.3,0.8,0.7,1.2,1.1c0.5,0.4,1.1,0.9,1.8,1.4c0.7,0.5,1.5,1,2.4,1.4c0.9,0.4,1.9,0.8,3.1,1.1            c1.2,0.3,2.5,0.4,4,0.4c2.1,0,3.9-0.3,5.5-0.9c1.6-0.6,3-1.5,4.1-2.5s2-2.4,2.6-3.8c0.6-1.5,0.9-3.1,0.9-4.7            c0-1.8-0.4-3.3-1.1-4.5c-0.7-1.2-1.7-2.2-3-3c-1.2-0.8-2.6-1.5-4.2-2c-1.6-0.5-3.2-1.1-4.8-1.6c-1.6-0.5-3.2-1.1-4.8-1.7            c-1.6-0.6-2.9-1.4-4.2-2.4c-1.2-1-2.2-2.2-3-3.7c-0.7-1.5-1.1-3.3-1.1-5.6c0-1.7,0.3-3.4,1-5c0.7-1.6,1.6-3,2.9-4.3            c1.3-1.2,2.8-2.2,4.7-3c1.9-0.7,4-1.1,6.4-1.1c2.7,0,5.1,0.4,7.3,1.3c2.1,0.9,4.1,2.2,5.9,3.9L167.2,32z"/>        <path class="st2" d="M152.9,78.8c-3.5,0-6.6-0.6-9.1-1.9c-2.5-1.2-4.8-3-6.7-5.1l-0.3-0.3l1.3-2c0.6-0.7,1.1-0.8,1.5-0.8            c0.4,0,0.8,0.2,1.2,0.6c0.3,0.3,0.8,0.7,1.3,1.1c0.5,0.4,1.1,0.9,1.7,1.4c0.7,0.5,1.4,0.9,2.3,1.3c0.9,0.4,1.9,0.8,3,1            c1.1,0.3,2.4,0.4,3.9,0.4c2,0,3.8-0.3,5.3-0.9c1.5-0.6,2.8-1.4,3.9-2.4c1-1,1.9-2.2,2.4-3.6c0.6-1.4,0.8-2.9,0.8-4.5            c0-1.7-0.3-3.1-1-4.2c-0.7-1.1-1.6-2-2.8-2.8c-1.2-0.8-2.5-1.4-4-1.9c-1.5-0.5-3.1-1.1-4.8-1.6c-1.7-0.5-3.3-1.1-4.8-1.7            c-1.6-0.7-3.1-1.5-4.3-2.5c-1.3-1-2.3-2.4-3.1-3.9c-0.8-1.6-1.2-3.5-1.2-5.8c0-1.8,0.3-3.6,1-5.3c0.7-1.7,1.7-3.2,3-4.5            c1.3-1.3,3-2.3,4.9-3.1c1.9-0.8,4.2-1.2,6.6-1.2c2.8,0,5.3,0.4,7.5,1.3c2.2,0.9,4.2,2.3,6.1,4.1l0.3,0.3l-1.1,2.1            c-0.6,1.1-1.7,1.4-3.1,0.1c-0.5-0.4-1.1-0.9-2-1.4c-0.8-0.5-1.9-1-3.1-1.5c-1.2-0.4-2.7-0.7-4.6-0.7c-1.8,0-3.4,0.3-4.8,0.8            c-1.3,0.5-2.5,1.2-3.4,2.1c-0.9,0.9-1.6,1.9-2.1,3c-0.5,1.1-0.7,2.4-0.7,3.6c0,1.6,0.3,3,1,4c0.7,1.1,1.6,2,2.8,2.8            c1.2,0.8,2.5,1.4,4,2c1.5,0.5,3.1,1.1,4.8,1.6c1.6,0.5,3.3,1.1,4.8,1.8c1.6,0.7,3.1,1.5,4.3,2.5c1.3,1,2.3,2.3,3.1,3.8            c0.8,1.5,1.2,3.4,1.2,5.6c0,2.2-0.4,4.4-1.2,6.4c-0.8,2-1.9,3.7-3.4,5.2c-1.5,1.5-3.3,2.6-5.4,3.5            C158.1,78.3,155.6,78.8,152.9,78.8z M138.4,71.3c1.7,1.9,3.7,3.4,6,4.5c2.4,1.2,5.3,1.8,8.6,1.8c2.5,0,4.8-0.4,6.8-1.2            c2-0.8,3.6-1.9,5-3.2c1.3-1.3,2.4-3,3.1-4.8c0.7-1.8,1.1-3.8,1.1-5.9c0-2-0.4-3.7-1-5.1c-0.7-1.3-1.6-2.5-2.8-3.4            c-1.2-0.9-2.5-1.7-4-2.4c-1.5-0.6-3.1-1.2-4.7-1.8c-1.6-0.5-3.2-1.1-4.8-1.6c-1.6-0.6-3-1.3-4.3-2.1c-1.3-0.8-2.3-1.9-3.1-3.1            c-0.8-1.2-1.2-2.8-1.2-4.7c0-1.4,0.3-2.8,0.8-4.1c0.5-1.3,1.3-2.5,2.3-3.4c1-1,2.3-1.8,3.8-2.3c1.5-0.6,3.3-0.8,5.2-0.8            c1.9,0,3.6,0.2,5,0.7c1.3,0.5,2.5,1,3.3,1.6c0.9,0.6,1.6,1.1,2.1,1.6c0.6,0.5,0.8,0.5,0.8,0.5c0.1,0,0.3,0,0.4-0.3l0.7-1.3            c-1.6-1.5-3.4-2.7-5.3-3.5c-2.1-0.8-4.4-1.2-7-1.2c-2.3,0-4.4,0.4-6.2,1.1c-1.8,0.7-3.3,1.7-4.5,2.8c-1.2,1.2-2.1,2.5-2.8,4.1            c-0.6,1.5-0.9,3.1-0.9,4.8c0,2.1,0.4,3.9,1.1,5.3c0.7,1.4,1.6,2.6,2.8,3.5c1.2,0.9,2.5,1.7,4,2.3c1.5,0.6,3.1,1.2,4.7,1.7            c1.6,0.5,3.2,1,4.8,1.6c1.6,0.6,3,1.2,4.3,2.1c1.3,0.8,2.4,1.9,3.1,3.2c0.8,1.3,1.2,2.9,1.2,4.9c0,1.8-0.3,3.4-0.9,5            c-0.6,1.6-1.5,2.9-2.7,4c-1.2,1.1-2.6,2-4.3,2.7c-1.7,0.6-3.6,1-5.7,1c-1.5,0-2.9-0.2-4.2-0.5c-1.2-0.3-2.3-0.7-3.2-1.1            c-0.9-0.4-1.8-0.9-2.5-1.5c-0.7-0.5-1.3-1-1.8-1.4c-0.5-0.4-0.9-0.8-1.2-1.1c-0.3-0.3-0.5-0.3-0.5-0.3c-0.1,0-0.3,0-0.5,0.3            L138.4,71.3z"/>    </g>    <g>        <path class="st1" d="M226.7,51.6c0,4-0.6,7.6-1.8,10.9c-1.2,3.3-2.9,6.1-5.1,8.4c-2.2,2.3-4.8,4.1-7.8,5.4            c-3,1.3-6.4,1.9-10.1,1.9c-3.6,0-7-0.6-10-1.9c-3-1.3-5.6-3-7.8-5.4c-2.2-2.3-3.9-5.1-5.1-8.4c-1.2-3.3-1.8-6.9-1.8-10.9            c0-4,0.6-7.6,1.8-10.9c1.2-3.3,2.9-6.1,5.1-8.4c2.2-2.3,4.8-4.1,7.8-5.4c3-1.3,6.4-1.9,10-1.9c3.7,0,7.1,0.6,10.1,1.9            c3,1.3,5.6,3,7.8,5.4c2.2,2.3,3.9,5.1,5.1,8.4C226.1,44,226.7,47.6,226.7,51.6z M222.8,51.6c0-3.6-0.5-6.9-1.5-9.8            c-1-2.9-2.4-5.3-4.2-7.3c-1.8-2-4-3.5-6.6-4.6c-2.6-1.1-5.4-1.6-8.5-1.6c-3.1,0-5.9,0.5-8.5,1.6c-2.6,1.1-4.8,2.6-6.6,4.6            c-1.8,2-3.3,4.4-4.3,7.3c-1,2.9-1.5,6.1-1.5,9.8c0,3.6,0.5,6.9,1.5,9.8c1,2.9,2.4,5.3,4.3,7.3c1.8,2,4,3.5,6.6,4.6            c2.6,1.1,5.4,1.6,8.5,1.6c3.1,0,6-0.5,8.5-1.6c2.6-1,4.8-2.6,6.6-4.6c1.8-2,3.2-4.4,4.2-7.3C222.3,58.5,222.8,55.3,222.8,51.6z"/>        <path class="st2" d="M202,78.7c-3.7,0-7.2-0.7-10.2-1.9c-3.1-1.3-5.8-3.1-8-5.5c-2.2-2.4-4-5.2-5.2-8.6c-1.2-3.3-1.9-7.1-1.9-11.1            c0-4,0.6-7.8,1.9-11.1c1.2-3.3,3-6.2,5.2-8.6c2.2-2.4,4.9-4.2,8-5.5c3.1-1.3,6.5-2,10.2-2c3.8,0,7.2,0.7,10.3,1.9            c3.1,1.3,5.8,3.1,8,5.5c2.2,2.4,4,5.3,5.2,8.6c1.2,3.3,1.8,7,1.8,11.1c0,4.1-0.6,7.8-1.8,11.1c-1.2,3.3-3,6.2-5.2,8.6            c-2.2,2.4-4.9,4.2-8,5.5C209.2,78.1,205.7,78.7,202,78.7z M202,25.7c-3.5,0-6.8,0.6-9.8,1.9c-2.9,1.2-5.5,3-7.6,5.2            c-2.1,2.2-3.8,5-4.9,8.2c-1.2,3.2-1.8,6.8-1.8,10.7c0,3.9,0.6,7.5,1.8,10.7c1.2,3.2,2.8,5.9,4.9,8.2c2.1,2.2,4.7,4,7.6,5.2            c2.9,1.2,6.2,1.8,9.8,1.8c3.6,0,6.9-0.6,9.8-1.8c2.9-1.2,5.5-3,7.6-5.2c2.1-2.2,3.8-5,4.9-8.1c1.2-3.2,1.8-6.8,1.8-10.7            c0-3.9-0.6-7.5-1.8-10.7c-1.2-3.2-2.8-5.9-4.9-8.2c-2.1-2.2-4.7-4-7.6-5.2C208.9,26.3,205.6,25.7,202,25.7z"/>    </g>    <g>        <path class="st1" d="M256.4,74.9c2.5,0,4.7-0.4,6.7-1.3c2-0.9,3.6-2.1,5-3.6c1.4-1.5,2.4-3.4,3.1-5.4c0.7-2.1,1.1-4.3,1.1-6.8            V25.7h3.7v32.1c0,2.9-0.5,5.5-1.4,8c-0.9,2.5-2.2,4.6-3.9,6.5c-1.7,1.8-3.8,3.3-6.2,4.3c-2.4,1-5.2,1.6-8.2,1.6            c-3,0-5.8-0.5-8.2-1.6c-2.4-1.1-4.5-2.5-6.2-4.3c-1.7-1.8-3-4-3.9-6.5c-0.9-2.5-1.4-5.2-1.4-8V25.7h3.8v32c0,2.4,0.4,4.7,1.1,6.8            c0.7,2.1,1.8,3.9,3.1,5.4c1.4,1.5,3,2.7,5,3.6C251.6,74.5,253.9,74.9,256.4,74.9z"/>        <path class="st2" d="M256.4,78.8c-3.1,0-5.9-0.5-8.4-1.6c-2.5-1.1-4.7-2.6-6.4-4.5c-1.7-1.9-3.1-4.2-4-6.7            c-0.9-2.5-1.4-5.3-1.4-8.2V25.1h5v32.7c0,2.3,0.4,4.5,1,6.6c0.7,2,1.7,3.8,3,5.2c1.3,1.5,2.9,2.6,4.8,3.5c1.9,0.8,4,1.3,6.4,1.3            c2.4,0,4.6-0.4,6.4-1.2c1.9-0.8,3.5-2,4.8-3.5c1.3-1.5,2.3-3.2,3-5.2c0.7-2,1-4.2,1-6.6V25.1h5v32.7c0,2.9-0.5,5.7-1.4,8.2            c-0.9,2.5-2.3,4.8-4,6.7c-1.7,1.9-3.9,3.4-6.4,4.5C262.3,78.3,259.5,78.8,256.4,78.8z M237.3,26.3v31.5c0,2.8,0.4,5.4,1.3,7.8            c0.9,2.4,2.1,4.5,3.8,6.3c1.6,1.8,3.6,3.2,6,4.2c2.3,1,5,1.5,8,1.5c2.9,0,5.6-0.5,8-1.5c2.3-1,4.4-2.4,6-4.2            c1.6-1.8,2.9-3.9,3.8-6.3c0.9-2.4,1.3-5,1.3-7.8V26.3h-2.5v31.5c0,2.5-0.4,4.8-1.1,7c-0.7,2.2-1.8,4.1-3.3,5.7            c-1.4,1.6-3.2,2.9-5.2,3.8c-2,0.9-4.4,1.4-6.9,1.4c-2.6,0-4.9-0.5-6.9-1.4c-2-0.9-3.8-2.2-5.2-3.8c-1.4-1.6-2.5-3.5-3.2-5.7            c-0.7-2.1-1.1-4.5-1.1-7V26.3H237.3z"/>    </g>    <g>        <path class="st1" d="M297.5,51.3c1,0,0.9,0,0.9,0l2.2,0c2.3,0,4.4-0.3,6.2-0.8c1.8-0.6,3.4-1.3,4.6-2.4c1.3-1,2.2-2.3,2.9-3.7            c0.7-1.4,1-3.1,1-4.9c0-3.7-1.2-6.4-3.6-8.2c-2.4-1.8-5.9-2.7-10.6-2.7h-9.5v22.7v2.8v23.5h-3.7V25.7h13.2c6,0,10.5,1.2,13.4,3.5            c3,2.3,4.4,5.7,4.4,10.2c0,2-0.3,3.8-1,5.4c-0.7,1.6-1.7,3.1-3,4.3c-1.3,1.2-2.8,2.3-4.6,3c-1.8,0.8-3.9,1.3-6.1,1.6            c0.6,0.4,1.1,0.9,1.6,1.5l17.9,22.4h-3.3c-0.4,0-0.7-0.1-1-0.2c-0.3-0.1-0.6-0.4-0.8-0.7l-16.6-21c-0.4-0.5-0.9-0.9-1.3-1.1            c-0.5-0.2-3.4-0.3-4.4-0.3C296.3,51.6,296.7,51.3,297.5,51.3z"/>        <path class="st2" d="M325,78.2h-4.5c-0.5,0-0.9-0.1-1.3-0.3c-0.4-0.2-0.7-0.5-1-0.9l-16.6-21c-0.4-0.5-0.7-0.8-1.1-1            c-0.4-0.1-2.8-0.3-4.1-0.3h-0.6v-2.6c0-0.9,0.2-1.4,1.8-1.4c0.9,0,1,0,1,0l2.2,0c2.2,0,4.2-0.3,6-0.8c1.7-0.5,3.2-1.3,4.4-2.3            c1.2-1,2.1-2.1,2.7-3.5c0.6-1.4,0.9-2.9,0.9-4.6c0-3.5-1.1-6-3.4-7.7c-2.3-1.7-5.7-2.6-10.2-2.6h-8.9v48.9h-5V25.1h13.9            c6.1,0,10.7,1.2,13.8,3.6c3.1,2.4,4.7,6,4.7,10.7c0,2.1-0.4,4-1.1,5.7c-0.7,1.7-1.8,3.2-3.1,4.5c-1.3,1.3-3,2.3-4.8,3.2            c-1.5,0.6-3.1,1.1-4.9,1.4c0.2,0.2,0.4,0.4,0.6,0.7L325,78.2z M296.9,53.5c1.1,0,3.4,0.1,4,0.4c0.6,0.3,1.1,0.7,1.6,1.3l16.6,21            c0.2,0.3,0.4,0.5,0.6,0.6c0.2,0.1,0.4,0.2,0.7,0.2h2l-17.1-21.4c-0.4-0.6-0.9-1-1.4-1.3l-1.5-0.9l1.8-0.2c2.2-0.2,4.2-0.7,5.9-1.5            c1.7-0.8,3.2-1.7,4.5-2.9c1.2-1.2,2.2-2.5,2.8-4.1c0.6-1.6,1-3.3,1-5.2c0-4.3-1.4-7.5-4.2-9.7c-2.8-2.2-7.2-3.3-13-3.3h-12.6V77            h2.5V28h10.1c4.7,0,8.4,0.9,10.9,2.8c2.6,1.9,3.9,4.8,3.9,8.7c0,1.9-0.4,3.6-1,5.1c-0.7,1.5-1.7,2.8-3.1,3.9            c-1.3,1.1-2.9,1.9-4.8,2.5c-1.9,0.6-4,0.9-6.4,0.9l-2.2,0c-0.1,0-0.2,0-0.9,0C297.3,51.9,297,51.9,296.9,53.5z"/>    </g>    <g>        <path class="st1" d="M367.6,68.8c0.2,0,0.5,0.1,0.6,0.3l1.5,1.6c-1.1,1.1-2.2,2.2-3.5,3.1c-1.3,0.9-2.7,1.7-4.2,2.3            c-1.5,0.6-3.2,1.1-4.9,1.5c-1.8,0.4-3.8,0.5-5.9,0.5c-3.6,0-6.9-0.6-9.9-1.9c-3-1.3-5.6-3-7.7-5.4c-2.1-2.3-3.8-5.1-5-8.4            c-1.2-3.3-1.8-6.9-1.8-10.9c0-3.9,0.6-7.5,1.9-10.8c1.2-3.3,3-6,5.2-8.4c2.2-2.3,4.9-4.1,8-5.4c3.1-1.3,6.6-1.9,10.3-1.9            c1.9,0,3.6,0.1,5.2,0.4c1.6,0.3,3,0.7,4.4,1.2c1.4,0.5,2.6,1.2,3.8,2c1.2,0.8,2.4,1.7,3.5,2.7l-1.1,1.6c-0.2,0.3-0.5,0.4-0.9,0.4            c-0.2,0-0.5-0.1-0.8-0.4c-0.3-0.3-0.8-0.6-1.3-1c-0.5-0.4-1.2-0.8-1.9-1.2c-0.7-0.5-1.6-0.9-2.7-1.2c-1-0.4-2.2-0.7-3.6-1            c-1.3-0.3-2.9-0.4-4.6-0.4c-3.2,0-6.1,0.5-8.7,1.6c-2.6,1.1-4.9,2.6-6.8,4.7c-1.9,2-3.4,4.5-4.5,7.3s-1.6,6.1-1.6,9.7            c0,3.7,0.5,6.9,1.6,9.8c1.1,2.9,2.5,5.3,4.4,7.3c1.9,2,4.1,3.5,6.6,4.6c2.5,1.1,5.3,1.6,8.2,1.6c1.9,0,3.5-0.1,5-0.4            c1.5-0.2,2.8-0.6,4-1.1c1.2-0.5,2.4-1.1,3.4-1.8c1.1-0.7,2.1-1.5,3.1-2.5c0.1-0.1,0.2-0.2,0.3-0.2            C367.3,68.9,367.5,68.8,367.6,68.8z"/>        <path class="st2" d="M351.1,78.8c-3.7,0-7.1-0.7-10.1-1.9c-3.1-1.3-5.7-3.1-7.9-5.5c-2.2-2.4-3.9-5.2-5.1-8.6            c-1.2-3.3-1.8-7.1-1.8-11.1c0-4,0.6-7.7,1.9-11c1.3-3.3,3.1-6.2,5.3-8.6c2.3-2.4,5.1-4.3,8.2-5.6c3.2-1.3,6.7-2,10.6-2            c1.9,0,3.7,0.1,5.3,0.4c1.6,0.3,3.1,0.7,4.5,1.2c1.4,0.5,2.7,1.2,3.9,2c1.2,0.8,2.4,1.7,3.6,2.8l0.4,0.4l-1.4,2.1            c-0.2,0.3-0.6,0.7-1.4,0.7c-0.4,0-0.7-0.2-1.2-0.5c-0.3-0.3-0.8-0.6-1.3-0.9c-0.5-0.4-1.1-0.8-1.9-1.2c-0.7-0.4-1.6-0.8-2.6-1.2            c-1-0.4-2.2-0.7-3.5-0.9c-1.3-0.2-2.8-0.4-4.5-0.4c-3.1,0-5.9,0.5-8.5,1.6c-2.5,1.1-4.8,2.6-6.6,4.5c-1.8,1.9-3.3,4.3-4.3,7.1            c-1,2.8-1.6,6-1.6,9.4c0,3.6,0.5,6.8,1.5,9.6c1,2.8,2.4,5.2,4.2,7.1c1.8,1.9,3.9,3.4,6.4,4.4c2.4,1,5.1,1.5,8,1.5            c1.8,0,3.5-0.1,4.9-0.4c1.4-0.2,2.7-0.6,3.9-1.1c1.2-0.5,2.3-1.1,3.3-1.7c1-0.7,2-1.5,3-2.4c0.2-0.2,0.3-0.2,0.5-0.3            c0.5-0.3,1.3-0.2,1.7,0.3l1.9,2l-0.4,0.4c-1.1,1.2-2.3,2.2-3.6,3.2c-1.3,0.9-2.7,1.8-4.3,2.4c-1.5,0.7-3.2,1.2-5.1,1.5            C355.3,78.6,353.3,78.8,351.1,78.8z M352.2,25.7c-3.7,0-7.1,0.6-10.1,1.9c-3,1.2-5.7,3-7.8,5.3c-2.2,2.3-3.9,5-5.1,8.2            c-1.2,3.2-1.8,6.7-1.8,10.6c0,3.9,0.6,7.5,1.8,10.7c1.2,3.2,2.8,5.9,4.9,8.2c2.1,2.2,4.6,4,7.5,5.2c2.9,1.2,6.1,1.8,9.6,1.8            c2.1,0,4-0.2,5.8-0.5c1.7-0.3,3.4-0.8,4.8-1.5c1.5-0.6,2.8-1.4,4-2.3c1.1-0.8,2.1-1.7,3-2.6l-1.1-1.2c-0.1-0.1-0.2-0.1-0.3,0            c-0.1,0-0.2,0.1-0.3,0.2c-1,0.9-2.1,1.8-3.2,2.5c-1.1,0.7-2.3,1.4-3.5,1.9c-1.3,0.5-2.7,0.9-4.1,1.1c-1.5,0.2-3.2,0.4-5.1,0.4            c-3,0-5.9-0.6-8.5-1.6c-2.6-1.1-4.9-2.7-6.8-4.7c-1.9-2-3.4-4.6-4.5-7.5c-1.1-2.9-1.6-6.3-1.6-10c0-3.6,0.5-6.9,1.6-9.9            c1.1-2.9,2.6-5.5,4.6-7.5c2-2.1,4.3-3.7,7-4.8c2.7-1.1,5.7-1.7,8.9-1.7c1.7,0,3.3,0.1,4.7,0.4c1.4,0.3,2.6,0.6,3.7,1            c1.1,0.4,2,0.8,2.8,1.3c0.8,0.5,1.4,0.9,1.9,1.3c0.5,0.4,1,0.7,1.3,1c0.3,0.3,0.5,0.3,0.5,0.3c0.3,0,0.4-0.1,0.4-0.2l0.8-1.2            c-1-0.9-2-1.6-3-2.3c-1.2-0.8-2.4-1.4-3.7-1.9c-1.3-0.5-2.8-0.9-4.3-1.2C355.7,25.9,354,25.7,352.2,25.7z"/>    </g>    <g>        <path class="st1" d="M410.3,25.7v3.1H383v21h22.7v3H383v21.6h27.3v3.1h-31.1V25.7H410.3z"/>        <path class="st2" d="M410.9,78.2h-32.3V25.1h32.3v4.3h-27.3v19.7h22.7v4.3h-22.7v20.4h27.3V78.2z M379.8,77h29.9v-1.9h-27.3V52.2            h22.7v-1.8h-22.7V28.2h27.3v-1.9h-29.9V77z"/>    </g>    <g>        <path class="st1" d="M456.8,25.1V33h-23.5v15.7h19.8v7.9h-19.8v21.6h-9.9v-53H456.8z"/>    </g>    <g>        <path class="st1" d="M514.3,51.6c0,3.9-0.6,7.5-1.9,10.8c-1.3,3.3-3.1,6.2-5.5,8.6c-2.3,2.4-5.2,4.3-8.5,5.7c-3.3,1.4-7,2-11,2            c-4,0-7.7-0.7-11-2c-3.3-1.4-6.1-3.2-8.5-5.7c-2.4-2.4-4.2-5.3-5.5-8.6s-1.9-6.9-1.9-10.8s0.6-7.5,1.9-10.8            c1.3-3.3,3.1-6.2,5.5-8.6c2.4-2.4,5.2-4.3,8.5-5.7c3.3-1.4,7-2,11-2c4,0,7.7,0.7,11,2.1c3.3,1.4,6.1,3.3,8.5,5.7            c2.3,2.4,4.2,5.3,5.5,8.6C513.6,44.1,514.3,47.7,514.3,51.6z M504.2,51.6c0-2.9-0.4-5.5-1.2-7.8c-0.8-2.3-1.9-4.3-3.3-5.9            c-1.4-1.6-3.2-2.8-5.3-3.7c-2.1-0.9-4.4-1.3-7-1.3c-2.6,0-4.9,0.4-7,1.3c-2.1,0.9-3.8,2.1-5.3,3.7c-1.5,1.6-2.6,3.6-3.4,5.9            c-0.8,2.3-1.2,4.9-1.2,7.8s0.4,5.5,1.2,7.8c0.8,2.3,1.9,4.3,3.4,5.9c1.5,1.6,3.2,2.8,5.3,3.7c2.1,0.9,4.4,1.3,7,1.3            c2.6,0,4.9-0.4,7-1.3c2.1-0.9,3.8-2.1,5.3-3.7c1.4-1.6,2.5-3.6,3.3-5.9C503.8,57.1,504.2,54.5,504.2,51.6z"/>    </g>    <g>        <path class="st1" d="M534.9,50.4l2.3,0c1.9,0,3.5-0.2,4.9-0.7c1.4-0.5,2.5-1.1,3.4-1.9c0.9-0.8,1.6-1.8,2-2.9            c0.4-1.1,0.7-2.4,0.7-3.7c0-2.7-0.9-4.8-2.7-6.2c-1.8-1.4-4.5-2.2-8.1-2.2H531v17.6v7.1v20.7h-9.9v-53h16.2c3.6,0,6.7,0.4,9.3,1.1            c2.6,0.7,4.7,1.8,6.3,3.1c1.6,1.3,2.9,3,3.6,4.8c0.8,1.9,1.2,3.9,1.2,6.2c0,1.8-0.3,3.5-0.8,5.1c-0.5,1.6-1.3,3-2.3,4.3            c-1,1.3-2.2,2.4-3.7,3.4c-1.5,1-3.1,1.8-5,2.3c1.2,0.7,2.3,1.7,3.2,3l13.3,19.6h-8.9c-0.9,0-1.6-0.2-2.2-0.5            c-0.6-0.3-1.1-0.8-1.5-1.5c0,0-11.1-17-11.1-17c-0.3-0.4-0.9-1.3-1.5-1.4c-1.2,0-2.4,0-3.5,0c0,0,0-6,0-6.4            C533.8,50.4,534.9,50.4,534.9,50.4z"/>    </g>    <g>        <path class="st1" d="M591.4,70.9c2.2,0,4.2-0.2,5.8-0.6c1.6-0.4,3.2-1,4.7-1.7v-12h-6.6c-0.6,0-1.1-0.2-1.5-0.5            c-0.4-0.4-0.6-0.8-0.6-1.3v-5.6h17.6V73c-1.3,1-2.7,1.8-4.2,2.5c-1.5,0.7-3,1.3-4.7,1.8c-1.7,0.5-3.4,0.8-5.3,1            c-1.9,0.2-3.9,0.3-6.1,0.3c-3.9,0-7.4-0.7-10.7-2c-3.3-1.3-6.1-3.2-8.4-5.6c-2.4-2.4-4.2-5.3-5.6-8.6c-1.3-3.3-2-7-2-10.9            c0-4,0.6-7.6,1.9-11c1.3-3.3,3.1-6.2,5.5-8.6c2.4-2.4,5.3-4.3,8.7-5.6c3.4-1.3,7.2-2,11.4-2c4.3,0,8.1,0.6,11.2,1.9            c3.2,1.3,5.8,3,8,5l-2.9,4.5c-0.6,0.9-1.3,1.4-2.2,1.4c-0.6,0-1.2-0.2-1.8-0.6c-0.8-0.5-1.6-0.9-2.4-1.4c-0.8-0.5-1.7-0.9-2.7-1.2            c-1-0.3-2.1-0.6-3.3-0.8c-1.2-0.2-2.7-0.3-4.3-0.3c-2.6,0-5,0.4-7.1,1.3c-2.1,0.9-3.9,2.1-5.4,3.8c-1.5,1.6-2.6,3.6-3.4,5.9            c-0.8,2.3-1.2,4.9-1.2,7.7c0,3.1,0.4,5.8,1.3,8.2c0.9,2.4,2.1,4.4,3.6,6s3.4,2.9,5.5,3.8S588.9,70.9,591.4,70.9z"/>    </g>    <g>        <path class="st1" d="M645.7,56.8h-16.1v13.4H653v7.9h-33.4v-53H653V33h-23.5v16.3H648v5.8C648,55.1,647.9,56.8,645.7,56.8z"/>    </g></g></svg>
            </a>
            <nav class="links">

                <a href="/support" title="Help">Help</a>
                
                <a href="/create" title="Create">Create</a>
                

                
                <a href="/user/registration/" title="Join" >Join</a>
                <a href="/auth/" title="Login">Login</a>
                
            </nav>
        </div>
    </section>

    <section class="sandiego l-header-nav-top hide-for-large">
        <div class="row">
            <a href="/" title="Home" class="sf-logo">
                

<svg  version="1.1"  xmlns="http://www.w3.org/2000/svg" xmlns:xlink="http://www.w3.org/1999/xlink" x="0px" y="0px"     viewBox="0 0 653 102.6" style="enable-background:new 0 0 653 102.6;" xml:space="preserve"><path class="st0" d="M66.9,54.5c0-19.1-6.8-27.8-10.4-31.1c-0.7-0.6-1.8-0.1-1.7,0.9c0.7,10.8-12.9,13.5-12.9,30.4h0    c0,0,0,0.1,0,0.1c0,10.3,7.8,18.7,17.4,18.7c9.6,0,17.4-8.4,17.4-18.7c0,0,0-0.1,0-0.1h0c0-4.8-1.8-9.4-3.6-12.8    c-0.4-0.7-1.4-0.4-1.3,0.2C75.1,56.7,66.9,65.7,66.9,54.5z"/><g>    <path class="st0" d="M46.2,94.8c-0.4,0-0.9-0.2-1.2-0.5L0.5,49.8c-0.6-0.6-0.6-1.7,0-2.4l47-47C47.8,0.2,48.2,0,48.6,0h13.5        c0.8,0,1.3,0.5,1.5,1c0.2,0.5,0.2,1.2-0.4,1.8L19.1,47c-0.9,0.9-0.9,2.3,0,3.2L54,85.2c0.6,0.6,0.6,1.7,0,2.4l-6.7,6.8        C47,94.6,46.6,94.8,46.2,94.8z"/></g><g>    <path class="st0" d="M55.1,102.6c-0.8,0-1.3-0.5-1.5-1c-0.2-0.5-0.2-1.2,0.4-1.8l44.2-44.2c0.4-0.4,0.7-1,0.7-1.6        c0-0.6-0.2-1.2-0.7-1.6L63.2,17.4c-0.6-0.6-0.6-1.7,0-2.4l6.8-6.8c0.3-0.3,0.7-0.5,1.2-0.5S72,8,72.3,8.3l44.4,44.5        c0.3,0.3,0.5,0.7,0.5,1.2s-0.2,0.9-0.5,1.2l-47,47c-0.3,0.3-0.7,0.5-1.2,0.5H55.1z"/></g><g>    <g>        <path class="st1" d="M167.2,32c-0.2,0.4-0.5,0.6-1,0.6c-0.3,0-0.7-0.2-1.2-0.7c-0.5-0.5-1.2-1-2-1.5c-0.9-0.6-1.9-1.1-3.2-1.5            c-1.3-0.5-2.9-0.7-4.8-0.7c-1.9,0-3.5,0.3-5,0.8c-1.4,0.5-2.6,1.3-3.6,2.2s-1.7,2-2.2,3.2c-0.5,1.2-0.8,2.5-0.8,3.8            c0,1.8,0.4,3.2,1.1,4.4c0.7,1.1,1.7,2.1,3,2.9c1.2,0.8,2.6,1.5,4.2,2c1.6,0.6,3.2,1.1,4.8,1.6c1.6,0.5,3.2,1.1,4.8,1.8            c1.6,0.6,2.9,1.5,4.2,2.4s2.2,2.2,3,3.6c0.7,1.4,1.1,3.2,1.1,5.3c0,2.2-0.4,4.2-1.1,6.1c-0.7,1.9-1.8,3.6-3.2,5            c-1.4,1.4-3.2,2.5-5.2,3.4c-2.1,0.8-4.4,1.2-7,1.2c-3.4,0-6.4-0.6-8.8-1.8c-2.5-1.2-4.6-2.9-6.5-5l1-1.6c0.3-0.4,0.6-0.5,1-0.5            c0.2,0,0.5,0.1,0.8,0.4c0.3,0.3,0.8,0.7,1.2,1.1c0.5,0.4,1.1,0.9,1.8,1.4c0.7,0.5,1.5,1,2.4,1.4c0.9,0.4,1.9,0.8,3.1,1.1            c1.2,0.3,2.5,0.4,4,0.4c2.1,0,3.9-0.3,5.5-0.9c1.6-0.6,3-1.5,4.1-2.5s2-2.4,2.6-3.8c0.6-1.5,0.9-3.1,0.9-4.7            c0-1.8-0.4-3.3-1.1-4.5c-0.7-1.2-1.7-2.2-3-3c-1.2-0.8-2.6-1.5-4.2-2c-1.6-0.5-3.2-1.1-4.8-1.6c-1.6-0.5-3.2-1.1-4.8-1.7            c-1.6-0.6-2.9-1.4-4.2-2.4c-1.2-1-2.2-2.2-3-3.7c-0.7-1.5-1.1-3.3-1.1-5.6c0-1.7,0.3-3.4,1-5c0.7-1.6,1.6-3,2.9-4.3            c1.3-1.2,2.8-2.2,4.7-3c1.9-0.7,4-1.1,6.4-1.1c2.7,0,5.1,0.4,7.3,1.3c2.1,0.9,4.1,2.2,5.9,3.9L167.2,32z"/>        <path class="st2" d="M152.9,78.8c-3.5,0-6.6-0.6-9.1-1.9c-2.5-1.2-4.8-3-6.7-5.1l-0.3-0.3l1.3-2c0.6-0.7,1.1-0.8,1.5-0.8            c0.4,0,0.8,0.2,1.2,0.6c0.3,0.3,0.8,0.7,1.3,1.1c0.5,0.4,1.1,0.9,1.7,1.4c0.7,0.5,1.4,0.9,2.3,1.3c0.9,0.4,1.9,0.8,3,1            c1.1,0.3,2.4,0.4,3.9,0.4c2,0,3.8-0.3,5.3-0.9c1.5-0.6,2.8-1.4,3.9-2.4c1-1,1.9-2.2,2.4-3.6c0.6-1.4,0.8-2.9,0.8-4.5            c0-1.7-0.3-3.1-1-4.2c-0.7-1.1-1.6-2-2.8-2.8c-1.2-0.8-2.5-1.4-4-1.9c-1.5-0.5-3.1-1.1-4.8-1.6c-1.7-0.5-3.3-1.1-4.8-1.7            c-1.6-0.7-3.1-1.5-4.3-2.5c-1.3-1-2.3-2.4-3.1-3.9c-0.8-1.6-1.2-3.5-1.2-5.8c0-1.8,0.3-3.6,1-5.3c0.7-1.7,1.7-3.2,3-4.5            c1.3-1.3,3-2.3,4.9-3.1c1.9-0.8,4.2-1.2,6.6-1.2c2.8,0,5.3,0.4,7.5,1.3c2.2,0.9,4.2,2.3,6.1,4.1l0.3,0.3l-1.1,2.1            c-0.6,1.1-1.7,1.4-3.1,0.1c-0.5-0.4-1.1-0.9-2-1.4c-0.8-0.5-1.9-1-3.1-1.5c-1.2-0.4-2.7-0.7-4.6-0.7c-1.8,0-3.4,0.3-4.8,0.8            c-1.3,0.5-2.5,1.2-3.4,2.1c-0.9,0.9-1.6,1.9-2.1,3c-0.5,1.1-0.7,2.4-0.7,3.6c0,1.6,0.3,3,1,4c0.7,1.1,1.6,2,2.8,2.8            c1.2,0.8,2.5,1.4,4,2c1.5,0.5,3.1,1.1,4.8,1.6c1.6,0.5,3.3,1.1,4.8,1.8c1.6,0.7,3.1,1.5,4.3,2.5c1.3,1,2.3,2.3,3.1,3.8            c0.8,1.5,1.2,3.4,1.2,5.6c0,2.2-0.4,4.4-1.2,6.4c-0.8,2-1.9,3.7-3.4,5.2c-1.5,1.5-3.3,2.6-5.4,3.5            C158.1,78.3,155.6,78.8,152.9,78.8z M138.4,71.3c1.7,1.9,3.7,3.4,6,4.5c2.4,1.2,5.3,1.8,8.6,1.8c2.5,0,4.8-0.4,6.8-1.2            c2-0.8,3.6-1.9,5-3.2c1.3-1.3,2.4-3,3.1-4.8c0.7-1.8,1.1-3.8,1.1-5.9c0-2-0.4-3.7-1-5.1c-0.7-1.3-1.6-2.5-2.8-3.4            c-1.2-0.9-2.5-1.7-4-2.4c-1.5-0.6-3.1-1.2-4.7-1.8c-1.6-0.5-3.2-1.1-4.8-1.6c-1.6-0.6-3-1.3-4.3-2.1c-1.3-0.8-2.3-1.9-3.1-3.1            c-0.8-1.2-1.2-2.8-1.2-4.7c0-1.4,0.3-2.8,0.8-4.1c0.5-1.3,1.3-2.5,2.3-3.4c1-1,2.3-1.8,3.8-2.3c1.5-0.6,3.3-0.8,5.2-0.8            c1.9,0,3.6,0.2,5,0.7c1.3,0.5,2.5,1,3.3,1.6c0.9,0.6,1.6,1.1,2.1,1.6c0.6,0.5,0.8,0.5,0.8,0.5c0.1,0,0.3,0,0.4-0.3l0.7-1.3            c-1.6-1.5-3.4-2.7-5.3-3.5c-2.1-0.8-4.4-1.2-7-1.2c-2.3,0-4.4,0.4-6.2,1.1c-1.8,0.7-3.3,1.7-4.5,2.8c-1.2,1.2-2.1,2.5-2.8,4.1            c-0.6,1.5-0.9,3.1-0.9,4.8c0,2.1,0.4,3.9,1.1,5.3c0.7,1.4,1.6,2.6,2.8,3.5c1.2,0.9,2.5,1.7,4,2.3c1.5,0.6,3.1,1.2,4.7,1.7            c1.6,0.5,3.2,1,4.8,1.6c1.6,0.6,3,1.2,4.3,2.1c1.3,0.8,2.4,1.9,3.1,3.2c0.8,1.3,1.2,2.9,1.2,4.9c0,1.8-0.3,3.4-0.9,5            c-0.6,1.6-1.5,2.9-2.7,4c-1.2,1.1-2.6,2-4.3,2.7c-1.7,0.6-3.6,1-5.7,1c-1.5,0-2.9-0.2-4.2-0.5c-1.2-0.3-2.3-0.7-3.2-1.1            c-0.9-0.4-1.8-0.9-2.5-1.5c-0.7-0.5-1.3-1-1.8-1.4c-0.5-0.4-0.9-0.8-1.2-1.1c-0.3-0.3-0.5-0.3-0.5-0.3c-0.1,0-0.3,0-0.5,0.3            L138.4,71.3z"/>    </g>    <g>        <path class="st1" d="M226.7,51.6c0,4-0.6,7.6-1.8,10.9c-1.2,3.3-2.9,6.1-5.1,8.4c-2.2,2.3-4.8,4.1-7.8,5.4            c-3,1.3-6.4,1.9-10.1,1.9c-3.6,0-7-0.6-10-1.9c-3-1.3-5.6-3-7.8-5.4c-2.2-2.3-3.9-5.1-5.1-8.4c-1.2-3.3-1.8-6.9-1.8-10.9            c0-4,0.6-7.6,1.8-10.9c1.2-3.3,2.9-6.1,5.1-8.4c2.2-2.3,4.8-4.1,7.8-5.4c3-1.3,6.4-1.9,10-1.9c3.7,0,7.1,0.6,10.1,1.9            c3,1.3,5.6,3,7.8,5.4c2.2,2.3,3.9,5.1,5.1,8.4C226.1,44,226.7,47.6,226.7,51.6z M222.8,51.6c0-3.6-0.5-6.9-1.5-9.8            c-1-2.9-2.4-5.3-4.2-7.3c-1.8-2-4-3.5-6.6-4.6c-2.6-1.1-5.4-1.6-8.5-1.6c-3.1,0-5.9,0.5-8.5,1.6c-2.6,1.1-4.8,2.6-6.6,4.6            c-1.8,2-3.3,4.4-4.3,7.3c-1,2.9-1.5,6.1-1.5,9.8c0,3.6,0.5,6.9,1.5,9.8c1,2.9,2.4,5.3,4.3,7.3c1.8,2,4,3.5,6.6,4.6            c2.6,1.1,5.4,1.6,8.5,1.6c3.1,0,6-0.5,8.5-1.6c2.6-1,4.8-2.6,6.6-4.6c1.8-2,3.2-4.4,4.2-7.3C222.3,58.5,222.8,55.3,222.8,51.6z"/>        <path class="st2" d="M202,78.7c-3.7,0-7.2-0.7-10.2-1.9c-3.1-1.3-5.8-3.1-8-5.5c-2.2-2.4-4-5.2-5.2-8.6c-1.2-3.3-1.9-7.1-1.9-11.1            c0-4,0.6-7.8,1.9-11.1c1.2-3.3,3-6.2,5.2-8.6c2.2-2.4,4.9-4.2,8-5.5c3.1-1.3,6.5-2,10.2-2c3.8,0,7.2,0.7,10.3,1.9            c3.1,1.3,5.8,3.1,8,5.5c2.2,2.4,4,5.3,5.2,8.6c1.2,3.3,1.8,7,1.8,11.1c0,4.1-0.6,7.8-1.8,11.1c-1.2,3.3-3,6.2-5.2,8.6            c-2.2,2.4-4.9,4.2-8,5.5C209.2,78.1,205.7,78.7,202,78.7z M202,25.7c-3.5,0-6.8,0.6-9.8,1.9c-2.9,1.2-5.5,3-7.6,5.2            c-2.1,2.2-3.8,5-4.9,8.2c-1.2,3.2-1.8,6.8-1.8,10.7c0,3.9,0.6,7.5,1.8,10.7c1.2,3.2,2.8,5.9,4.9,8.2c2.1,2.2,4.7,4,7.6,5.2            c2.9,1.2,6.2,1.8,9.8,1.8c3.6,0,6.9-0.6,9.8-1.8c2.9-1.2,5.5-3,7.6-5.2c2.1-2.2,3.8-5,4.9-8.1c1.2-3.2,1.8-6.8,1.8-10.7            c0-3.9-0.6-7.5-1.8-10.7c-1.2-3.2-2.8-5.9-4.9-8.2c-2.1-2.2-4.7-4-7.6-5.2C208.9,26.3,205.6,25.7,202,25.7z"/>    </g>    <g>        <path class="st1" d="M256.4,74.9c2.5,0,4.7-0.4,6.7-1.3c2-0.9,3.6-2.1,5-3.6c1.4-1.5,2.4-3.4,3.1-5.4c0.7-2.1,1.1-4.3,1.1-6.8            V25.7h3.7v32.1c0,2.9-0.5,5.5-1.4,8c-0.9,2.5-2.2,4.6-3.9,6.5c-1.7,1.8-3.8,3.3-6.2,4.3c-2.4,1-5.2,1.6-8.2,1.6            c-3,0-5.8-0.5-8.2-1.6c-2.4-1.1-4.5-2.5-6.2-4.3c-1.7-1.8-3-4-3.9-6.5c-0.9-2.5-1.4-5.2-1.4-8V25.7h3.8v32c0,2.4,0.4,4.7,1.1,6.8            c0.7,2.1,1.8,3.9,3.1,5.4c1.4,1.5,3,2.7,5,3.6C251.6,74.5,253.9,74.9,256.4,74.9z"/>        <path class="st2" d="M256.4,78.8c-3.1,0-5.9-0.5-8.4-1.6c-2.5-1.1-4.7-2.6-6.4-4.5c-1.7-1.9-3.1-4.2-4-6.7            c-0.9-2.5-1.4-5.3-1.4-8.2V25.1h5v32.7c0,2.3,0.4,4.5,1,6.6c0.7,2,1.7,3.8,3,5.2c1.3,1.5,2.9,2.6,4.8,3.5c1.9,0.8,4,1.3,6.4,1.3            c2.4,0,4.6-0.4,6.4-1.2c1.9-0.8,3.5-2,4.8-3.5c1.3-1.5,2.3-3.2,3-5.2c0.7-2,1-4.2,1-6.6V25.1h5v32.7c0,2.9-0.5,5.7-1.4,8.2            c-0.9,2.5-2.3,4.8-4,6.7c-1.7,1.9-3.9,3.4-6.4,4.5C262.3,78.3,259.5,78.8,256.4,78.8z M237.3,26.3v31.5c0,2.8,0.4,5.4,1.3,7.8            c0.9,2.4,2.1,4.5,3.8,6.3c1.6,1.8,3.6,3.2,6,4.2c2.3,1,5,1.5,8,1.5c2.9,0,5.6-0.5,8-1.5c2.3-1,4.4-2.4,6-4.2            c1.6-1.8,2.9-3.9,3.8-6.3c0.9-2.4,1.3-5,1.3-7.8V26.3h-2.5v31.5c0,2.5-0.4,4.8-1.1,7c-0.7,2.2-1.8,4.1-3.3,5.7            c-1.4,1.6-3.2,2.9-5.2,3.8c-2,0.9-4.4,1.4-6.9,1.4c-2.6,0-4.9-0.5-6.9-1.4c-2-0.9-3.8-2.2-5.2-3.8c-1.4-1.6-2.5-3.5-3.2-5.7            c-0.7-2.1-1.1-4.5-1.1-7V26.3H237.3z"/>    </g>    <g>        <path class="st1" d="M297.5,51.3c1,0,0.9,0,0.9,0l2.2,0c2.3,0,4.4-0.3,6.2-0.8c1.8-0.6,3.4-1.3,4.6-2.4c1.3-1,2.2-2.3,2.9-3.7            c0.7-1.4,1-3.1,1-4.9c0-3.7-1.2-6.4-3.6-8.2c-2.4-1.8-5.9-2.7-10.6-2.7h-9.5v22.7v2.8v23.5h-3.7V25.7h13.2c6,0,10.5,1.2,13.4,3.5            c3,2.3,4.4,5.7,4.4,10.2c0,2-0.3,3.8-1,5.4c-0.7,1.6-1.7,3.1-3,4.3c-1.3,1.2-2.8,2.3-4.6,3c-1.8,0.8-3.9,1.3-6.1,1.6            c0.6,0.4,1.1,0.9,1.6,1.5l17.9,22.4h-3.3c-0.4,0-0.7-0.1-1-0.2c-0.3-0.1-0.6-0.4-0.8-0.7l-16.6-21c-0.4-0.5-0.9-0.9-1.3-1.1            c-0.5-0.2-3.4-0.3-4.4-0.3C296.3,51.6,296.7,51.3,297.5,51.3z"/>        <path class="st2" d="M325,78.2h-4.5c-0.5,0-0.9-0.1-1.3-0.3c-0.4-0.2-0.7-0.5-1-0.9l-16.6-21c-0.4-0.5-0.7-0.8-1.1-1            c-0.4-0.1-2.8-0.3-4.1-0.3h-0.6v-2.6c0-0.9,0.2-1.4,1.8-1.4c0.9,0,1,0,1,0l2.2,0c2.2,0,4.2-0.3,6-0.8c1.7-0.5,3.2-1.3,4.4-2.3            c1.2-1,2.1-2.1,2.7-3.5c0.6-1.4,0.9-2.9,0.9-4.6c0-3.5-1.1-6-3.4-7.7c-2.3-1.7-5.7-2.6-10.2-2.6h-8.9v48.9h-5V25.1h13.9            c6.1,0,10.7,1.2,13.8,3.6c3.1,2.4,4.7,6,4.7,10.7c0,2.1-0.4,4-1.1,5.7c-0.7,1.7-1.8,3.2-3.1,4.5c-1.3,1.3-3,2.3-4.8,3.2            c-1.5,0.6-3.1,1.1-4.9,1.4c0.2,0.2,0.4,0.4,0.6,0.7L325,78.2z M296.9,53.5c1.1,0,3.4,0.1,4,0.4c0.6,0.3,1.1,0.7,1.6,1.3l16.6,21            c0.2,0.3,0.4,0.5,0.6,0.6c0.2,0.1,0.4,0.2,0.7,0.2h2l-17.1-21.4c-0.4-0.6-0.9-1-1.4-1.3l-1.5-0.9l1.8-0.2c2.2-0.2,4.2-0.7,5.9-1.5            c1.7-0.8,3.2-1.7,4.5-2.9c1.2-1.2,2.2-2.5,2.8-4.1c0.6-1.6,1-3.3,1-5.2c0-4.3-1.4-7.5-4.2-9.7c-2.8-2.2-7.2-3.3-13-3.3h-12.6V77            h2.5V28h10.1c4.7,0,8.4,0.9,10.9,2.8c2.6,1.9,3.9,4.8,3.9,8.7c0,1.9-0.4,3.6-1,5.1c-0.7,1.5-1.7,2.8-3.1,3.9            c-1.3,1.1-2.9,1.9-4.8,2.5c-1.9,0.6-4,0.9-6.4,0.9l-2.2,0c-0.1,0-0.2,0-0.9,0C297.3,51.9,297,51.9,296.9,53.5z"/>    </g>    <g>        <path class="st1" d="M367.6,68.8c0.2,0,0.5,0.1,0.6,0.3l1.5,1.6c-1.1,1.1-2.2,2.2-3.5,3.1c-1.3,0.9-2.7,1.7-4.2,2.3            c-1.5,0.6-3.2,1.1-4.9,1.5c-1.8,0.4-3.8,0.5-5.9,0.5c-3.6,0-6.9-0.6-9.9-1.9c-3-1.3-5.6-3-7.7-5.4c-2.1-2.3-3.8-5.1-5-8.4            c-1.2-3.3-1.8-6.9-1.8-10.9c0-3.9,0.6-7.5,1.9-10.8c1.2-3.3,3-6,5.2-8.4c2.2-2.3,4.9-4.1,8-5.4c3.1-1.3,6.6-1.9,10.3-1.9            c1.9,0,3.6,0.1,5.2,0.4c1.6,0.3,3,0.7,4.4,1.2c1.4,0.5,2.6,1.2,3.8,2c1.2,0.8,2.4,1.7,3.5,2.7l-1.1,1.6c-0.2,0.3-0.5,0.4-0.9,0.4            c-0.2,0-0.5-0.1-0.8-0.4c-0.3-0.3-0.8-0.6-1.3-1c-0.5-0.4-1.2-0.8-1.9-1.2c-0.7-0.5-1.6-0.9-2.7-1.2c-1-0.4-2.2-0.7-3.6-1            c-1.3-0.3-2.9-0.4-4.6-0.4c-3.2,0-6.1,0.5-8.7,1.6c-2.6,1.1-4.9,2.6-6.8,4.7c-1.9,2-3.4,4.5-4.5,7.3s-1.6,6.1-1.6,9.7            c0,3.7,0.5,6.9,1.6,9.8c1.1,2.9,2.5,5.3,4.4,7.3c1.9,2,4.1,3.5,6.6,4.6c2.5,1.1,5.3,1.6,8.2,1.6c1.9,0,3.5-0.1,5-0.4            c1.5-0.2,2.8-0.6,4-1.1c1.2-0.5,2.4-1.1,3.4-1.8c1.1-0.7,2.1-1.5,3.1-2.5c0.1-0.1,0.2-0.2,0.3-0.2            C367.3,68.9,367.5,68.8,367.6,68.8z"/>        <path class="st2" d="M351.1,78.8c-3.7,0-7.1-0.7-10.1-1.9c-3.1-1.3-5.7-3.1-7.9-5.5c-2.2-2.4-3.9-5.2-5.1-8.6            c-1.2-3.3-1.8-7.1-1.8-11.1c0-4,0.6-7.7,1.9-11c1.3-3.3,3.1-6.2,5.3-8.6c2.3-2.4,5.1-4.3,8.2-5.6c3.2-1.3,6.7-2,10.6-2            c1.9,0,3.7,0.1,5.3,0.4c1.6,0.3,3.1,0.7,4.5,1.2c1.4,0.5,2.7,1.2,3.9,2c1.2,0.8,2.4,1.7,3.6,2.8l0.4,0.4l-1.4,2.1            c-0.2,0.3-0.6,0.7-1.4,0.7c-0.4,0-0.7-0.2-1.2-0.5c-0.3-0.3-0.8-0.6-1.3-0.9c-0.5-0.4-1.1-0.8-1.9-1.2c-0.7-0.4-1.6-0.8-2.6-1.2            c-1-0.4-2.2-0.7-3.5-0.9c-1.3-0.2-2.8-0.4-4.5-0.4c-3.1,0-5.9,0.5-8.5,1.6c-2.5,1.1-4.8,2.6-6.6,4.5c-1.8,1.9-3.3,4.3-4.3,7.1            c-1,2.8-1.6,6-1.6,9.4c0,3.6,0.5,6.8,1.5,9.6c1,2.8,2.4,5.2,4.2,7.1c1.8,1.9,3.9,3.4,6.4,4.4c2.4,1,5.1,1.5,8,1.5            c1.8,0,3.5-0.1,4.9-0.4c1.4-0.2,2.7-0.6,3.9-1.1c1.2-0.5,2.3-1.1,3.3-1.7c1-0.7,2-1.5,3-2.4c0.2-0.2,0.3-0.2,0.5-0.3            c0.5-0.3,1.3-0.2,1.7,0.3l1.9,2l-0.4,0.4c-1.1,1.2-2.3,2.2-3.6,3.2c-1.3,0.9-2.7,1.8-4.3,2.4c-1.5,0.7-3.2,1.2-5.1,1.5            C355.3,78.6,353.3,78.8,351.1,78.8z M352.2,25.7c-3.7,0-7.1,0.6-10.1,1.9c-3,1.2-5.7,3-7.8,5.3c-2.2,2.3-3.9,5-5.1,8.2            c-1.2,3.2-1.8,6.7-1.8,10.6c0,3.9,0.6,7.5,1.8,10.7c1.2,3.2,2.8,5.9,4.9,8.2c2.1,2.2,4.6,4,7.5,5.2c2.9,1.2,6.1,1.8,9.6,1.8            c2.1,0,4-0.2,5.8-0.5c1.7-0.3,3.4-0.8,4.8-1.5c1.5-0.6,2.8-1.4,4-2.3c1.1-0.8,2.1-1.7,3-2.6l-1.1-1.2c-0.1-0.1-0.2-0.1-0.3,0            c-0.1,0-0.2,0.1-0.3,0.2c-1,0.9-2.1,1.8-3.2,2.5c-1.1,0.7-2.3,1.4-3.5,1.9c-1.3,0.5-2.7,0.9-4.1,1.1c-1.5,0.2-3.2,0.4-5.1,0.4            c-3,0-5.9-0.6-8.5-1.6c-2.6-1.1-4.9-2.7-6.8-4.7c-1.9-2-3.4-4.6-4.5-7.5c-1.1-2.9-1.6-6.3-1.6-10c0-3.6,0.5-6.9,1.6-9.9            c1.1-2.9,2.6-5.5,4.6-7.5c2-2.1,4.3-3.7,7-4.8c2.7-1.1,5.7-1.7,8.9-1.7c1.7,0,3.3,0.1,4.7,0.4c1.4,0.3,2.6,0.6,3.7,1            c1.1,0.4,2,0.8,2.8,1.3c0.8,0.5,1.4,0.9,1.9,1.3c0.5,0.4,1,0.7,1.3,1c0.3,0.3,0.5,0.3,0.5,0.3c0.3,0,0.4-0.1,0.4-0.2l0.8-1.2            c-1-0.9-2-1.6-3-2.3c-1.2-0.8-2.4-1.4-3.7-1.9c-1.3-0.5-2.8-0.9-4.3-1.2C355.7,25.9,354,25.7,352.2,25.7z"/>    </g>    <g>        <path class="st1" d="M410.3,25.7v3.1H383v21h22.7v3H383v21.6h27.3v3.1h-31.1V25.7H410.3z"/>        <path class="st2" d="M410.9,78.2h-32.3V25.1h32.3v4.3h-27.3v19.7h22.7v4.3h-22.7v20.4h27.3V78.2z M379.8,77h29.9v-1.9h-27.3V52.2            h22.7v-1.8h-22.7V28.2h27.3v-1.9h-29.9V77z"/>    </g>    <g>        <path class="st1" d="M456.8,25.1V33h-23.5v15.7h19.8v7.9h-19.8v21.6h-9.9v-53H456.8z"/>    </g>    <g>        <path class="st1" d="M514.3,51.6c0,3.9-0.6,7.5-1.9,10.8c-1.3,3.3-3.1,6.2-5.5,8.6c-2.3,2.4-5.2,4.3-8.5,5.7c-3.3,1.4-7,2-11,2            c-4,0-7.7-0.7-11-2c-3.3-1.4-6.1-3.2-8.5-5.7c-2.4-2.4-4.2-5.3-5.5-8.6s-1.9-6.9-1.9-10.8s0.6-7.5,1.9-10.8            c1.3-3.3,3.1-6.2,5.5-8.6c2.4-2.4,5.2-4.3,8.5-5.7c3.3-1.4,7-2,11-2c4,0,7.7,0.7,11,2.1c3.3,1.4,6.1,3.3,8.5,5.7            c2.3,2.4,4.2,5.3,5.5,8.6C513.6,44.1,514.3,47.7,514.3,51.6z M504.2,51.6c0-2.9-0.4-5.5-1.2-7.8c-0.8-2.3-1.9-4.3-3.3-5.9            c-1.4-1.6-3.2-2.8-5.3-3.7c-2.1-0.9-4.4-1.3-7-1.3c-2.6,0-4.9,0.4-7,1.3c-2.1,0.9-3.8,2.1-5.3,3.7c-1.5,1.6-2.6,3.6-3.4,5.9            c-0.8,2.3-1.2,4.9-1.2,7.8s0.4,5.5,1.2,7.8c0.8,2.3,1.9,4.3,3.4,5.9c1.5,1.6,3.2,2.8,5.3,3.7c2.1,0.9,4.4,1.3,7,1.3            c2.6,0,4.9-0.4,7-1.3c2.1-0.9,3.8-2.1,5.3-3.7c1.4-1.6,2.5-3.6,3.3-5.9C503.8,57.1,504.2,54.5,504.2,51.6z"/>    </g>    <g>        <path class="st1" d="M534.9,50.4l2.3,0c1.9,0,3.5-0.2,4.9-0.7c1.4-0.5,2.5-1.1,3.4-1.9c0.9-0.8,1.6-1.8,2-2.9            c0.4-1.1,0.7-2.4,0.7-3.7c0-2.7-0.9-4.8-2.7-6.2c-1.8-1.4-4.5-2.2-8.1-2.2H531v17.6v7.1v20.7h-9.9v-53h16.2c3.6,0,6.7,0.4,9.3,1.1            c2.6,0.7,4.7,1.8,6.3,3.1c1.6,1.3,2.9,3,3.6,4.8c0.8,1.9,1.2,3.9,1.2,6.2c0,1.8-0.3,3.5-0.8,5.1c-0.5,1.6-1.3,3-2.3,4.3            c-1,1.3-2.2,2.4-3.7,3.4c-1.5,1-3.1,1.8-5,2.3c1.2,0.7,2.3,1.7,3.2,3l13.3,19.6h-8.9c-0.9,0-1.6-0.2-2.2-0.5            c-0.6-0.3-1.1-0.8-1.5-1.5c0,0-11.1-17-11.1-17c-0.3-0.4-0.9-1.3-1.5-1.4c-1.2,0-2.4,0-3.5,0c0,0,0-6,0-6.4            C533.8,50.4,534.9,50.4,534.9,50.4z"/>    </g>    <g>        <path class="st1" d="M591.4,70.9c2.2,0,4.2-0.2,5.8-0.6c1.6-0.4,3.2-1,4.7-1.7v-12h-6.6c-0.6,0-1.1-0.2-1.5-0.5            c-0.4-0.4-0.6-0.8-0.6-1.3v-5.6h17.6V73c-1.3,1-2.7,1.8-4.2,2.5c-1.5,0.7-3,1.3-4.7,1.8c-1.7,0.5-3.4,0.8-5.3,1            c-1.9,0.2-3.9,0.3-6.1,0.3c-3.9,0-7.4-0.7-10.7-2c-3.3-1.3-6.1-3.2-8.4-5.6c-2.4-2.4-4.2-5.3-5.6-8.6c-1.3-3.3-2-7-2-10.9            c0-4,0.6-7.6,1.9-11c1.3-3.3,3.1-6.2,5.5-8.6c2.4-2.4,5.3-4.3,8.7-5.6c3.4-1.3,7.2-2,11.4-2c4.3,0,8.1,0.6,11.2,1.9            c3.2,1.3,5.8,3,8,5l-2.9,4.5c-0.6,0.9-1.3,1.4-2.2,1.4c-0.6,0-1.2-0.2-1.8-0.6c-0.8-0.5-1.6-0.9-2.4-1.4c-0.8-0.5-1.7-0.9-2.7-1.2            c-1-0.3-2.1-0.6-3.3-0.8c-1.2-0.2-2.7-0.3-4.3-0.3c-2.6,0-5,0.4-7.1,1.3c-2.1,0.9-3.9,2.1-5.4,3.8c-1.5,1.6-2.6,3.6-3.4,5.9            c-0.8,2.3-1.2,4.9-1.2,7.7c0,3.1,0.4,5.8,1.3,8.2c0.9,2.4,2.1,4.4,3.6,6s3.4,2.9,5.5,3.8S588.9,70.9,591.4,70.9z"/>    </g>    <g>        <path class="st1" d="M645.7,56.8h-16.1v13.4H653v7.9h-33.4v-53H653V33h-23.5v16.3H648v5.8C648,55.1,647.9,56.8,645.7,56.8z"/>    </g></g></svg>
            </a>
            <div class="title-bar-right">
                <button type="button" class="menu-icon" data-toggle="offCanvas"></button>
            </div>
        </div>
    </section>
    <section class="sandiego l-header-nav-bottom">
        <nav class="row">
            <a href="/" title="Home" class="sf-logo">
                

<svg  version="1.1"  xmlns="http://www.w3.org/2000/svg" xmlns:xlink="http://www.w3.org/1999/xlink" x="0px" y="0px"     viewBox="0 0 653 102.6" style="enable-background:new 0 0 653 102.6;" xml:space="preserve"><path class="st0" d="M66.9,54.5c0-19.1-6.8-27.8-10.4-31.1c-0.7-0.6-1.8-0.1-1.7,0.9c0.7,10.8-12.9,13.5-12.9,30.4h0    c0,0,0,0.1,0,0.1c0,10.3,7.8,18.7,17.4,18.7c9.6,0,17.4-8.4,17.4-18.7c0,0,0-0.1,0-0.1h0c0-4.8-1.8-9.4-3.6-12.8    c-0.4-0.7-1.4-0.4-1.3,0.2C75.1,56.7,66.9,65.7,66.9,54.5z"/><g>    <path class="st0" d="M46.2,94.8c-0.4,0-0.9-0.2-1.2-0.5L0.5,49.8c-0.6-0.6-0.6-1.7,0-2.4l47-47C47.8,0.2,48.2,0,48.6,0h13.5        c0.8,0,1.3,0.5,1.5,1c0.2,0.5,0.2,1.2-0.4,1.8L19.1,47c-0.9,0.9-0.9,2.3,0,3.2L54,85.2c0.6,0.6,0.6,1.7,0,2.4l-6.7,6.8        C47,94.6,46.6,94.8,46.2,94.8z"/></g><g>    <path class="st0" d="M55.1,102.6c-0.8,0-1.3-0.5-1.5-1c-0.2-0.5-0.2-1.2,0.4-1.8l44.2-44.2c0.4-0.4,0.7-1,0.7-1.6        c0-0.6-0.2-1.2-0.7-1.6L63.2,17.4c-0.6-0.6-0.6-1.7,0-2.4l6.8-6.8c0.3-0.3,0.7-0.5,1.2-0.5S72,8,72.3,8.3l44.4,44.5        c0.3,0.3,0.5,0.7,0.5,1.2s-0.2,0.9-0.5,1.2l-47,47c-0.3,0.3-0.7,0.5-1.2,0.5H55.1z"/></g><g>    <g>        <path class="st1" d="M167.2,32c-0.2,0.4-0.5,0.6-1,0.6c-0.3,0-0.7-0.2-1.2-0.7c-0.5-0.5-1.2-1-2-1.5c-0.9-0.6-1.9-1.1-3.2-1.5            c-1.3-0.5-2.9-0.7-4.8-0.7c-1.9,0-3.5,0.3-5,0.8c-1.4,0.5-2.6,1.3-3.6,2.2s-1.7,2-2.2,3.2c-0.5,1.2-0.8,2.5-0.8,3.8            c0,1.8,0.4,3.2,1.1,4.4c0.7,1.1,1.7,2.1,3,2.9c1.2,0.8,2.6,1.5,4.2,2c1.6,0.6,3.2,1.1,4.8,1.6c1.6,0.5,3.2,1.1,4.8,1.8            c1.6,0.6,2.9,1.5,4.2,2.4s2.2,2.2,3,3.6c0.7,1.4,1.1,3.2,1.1,5.3c0,2.2-0.4,4.2-1.1,6.1c-0.7,1.9-1.8,3.6-3.2,5            c-1.4,1.4-3.2,2.5-5.2,3.4c-2.1,0.8-4.4,1.2-7,1.2c-3.4,0-6.4-0.6-8.8-1.8c-2.5-1.2-4.6-2.9-6.5-5l1-1.6c0.3-0.4,0.6-0.5,1-0.5            c0.2,0,0.5,0.1,0.8,0.4c0.3,0.3,0.8,0.7,1.2,1.1c0.5,0.4,1.1,0.9,1.8,1.4c0.7,0.5,1.5,1,2.4,1.4c0.9,0.4,1.9,0.8,3.1,1.1            c1.2,0.3,2.5,0.4,4,0.4c2.1,0,3.9-0.3,5.5-0.9c1.6-0.6,3-1.5,4.1-2.5s2-2.4,2.6-3.8c0.6-1.5,0.9-3.1,0.9-4.7            c0-1.8-0.4-3.3-1.1-4.5c-0.7-1.2-1.7-2.2-3-3c-1.2-0.8-2.6-1.5-4.2-2c-1.6-0.5-3.2-1.1-4.8-1.6c-1.6-0.5-3.2-1.1-4.8-1.7            c-1.6-0.6-2.9-1.4-4.2-2.4c-1.2-1-2.2-2.2-3-3.7c-0.7-1.5-1.1-3.3-1.1-5.6c0-1.7,0.3-3.4,1-5c0.7-1.6,1.6-3,2.9-4.3            c1.3-1.2,2.8-2.2,4.7-3c1.9-0.7,4-1.1,6.4-1.1c2.7,0,5.1,0.4,7.3,1.3c2.1,0.9,4.1,2.2,5.9,3.9L167.2,32z"/>        <path class="st2" d="M152.9,78.8c-3.5,0-6.6-0.6-9.1-1.9c-2.5-1.2-4.8-3-6.7-5.1l-0.3-0.3l1.3-2c0.6-0.7,1.1-0.8,1.5-0.8            c0.4,0,0.8,0.2,1.2,0.6c0.3,0.3,0.8,0.7,1.3,1.1c0.5,0.4,1.1,0.9,1.7,1.4c0.7,0.5,1.4,0.9,2.3,1.3c0.9,0.4,1.9,0.8,3,1            c1.1,0.3,2.4,0.4,3.9,0.4c2,0,3.8-0.3,5.3-0.9c1.5-0.6,2.8-1.4,3.9-2.4c1-1,1.9-2.2,2.4-3.6c0.6-1.4,0.8-2.9,0.8-4.5            c0-1.7-0.3-3.1-1-4.2c-0.7-1.1-1.6-2-2.8-2.8c-1.2-0.8-2.5-1.4-4-1.9c-1.5-0.5-3.1-1.1-4.8-1.6c-1.7-0.5-3.3-1.1-4.8-1.7            c-1.6-0.7-3.1-1.5-4.3-2.5c-1.3-1-2.3-2.4-3.1-3.9c-0.8-1.6-1.2-3.5-1.2-5.8c0-1.8,0.3-3.6,1-5.3c0.7-1.7,1.7-3.2,3-4.5            c1.3-1.3,3-2.3,4.9-3.1c1.9-0.8,4.2-1.2,6.6-1.2c2.8,0,5.3,0.4,7.5,1.3c2.2,0.9,4.2,2.3,6.1,4.1l0.3,0.3l-1.1,2.1            c-0.6,1.1-1.7,1.4-3.1,0.1c-0.5-0.4-1.1-0.9-2-1.4c-0.8-0.5-1.9-1-3.1-1.5c-1.2-0.4-2.7-0.7-4.6-0.7c-1.8,0-3.4,0.3-4.8,0.8            c-1.3,0.5-2.5,1.2-3.4,2.1c-0.9,0.9-1.6,1.9-2.1,3c-0.5,1.1-0.7,2.4-0.7,3.6c0,1.6,0.3,3,1,4c0.7,1.1,1.6,2,2.8,2.8            c1.2,0.8,2.5,1.4,4,2c1.5,0.5,3.1,1.1,4.8,1.6c1.6,0.5,3.3,1.1,4.8,1.8c1.6,0.7,3.1,1.5,4.3,2.5c1.3,1,2.3,2.3,3.1,3.8            c0.8,1.5,1.2,3.4,1.2,5.6c0,2.2-0.4,4.4-1.2,6.4c-0.8,2-1.9,3.7-3.4,5.2c-1.5,1.5-3.3,2.6-5.4,3.5            C158.1,78.3,155.6,78.8,152.9,78.8z M138.4,71.3c1.7,1.9,3.7,3.4,6,4.5c2.4,1.2,5.3,1.8,8.6,1.8c2.5,0,4.8-0.4,6.8-1.2            c2-0.8,3.6-1.9,5-3.2c1.3-1.3,2.4-3,3.1-4.8c0.7-1.8,1.1-3.8,1.1-5.9c0-2-0.4-3.7-1-5.1c-0.7-1.3-1.6-2.5-2.8-3.4            c-1.2-0.9-2.5-1.7-4-2.4c-1.5-0.6-3.1-1.2-4.7-1.8c-1.6-0.5-3.2-1.1-4.8-1.6c-1.6-0.6-3-1.3-4.3-2.1c-1.3-0.8-2.3-1.9-3.1-3.1            c-0.8-1.2-1.2-2.8-1.2-4.7c0-1.4,0.3-2.8,0.8-4.1c0.5-1.3,1.3-2.5,2.3-3.4c1-1,2.3-1.8,3.8-2.3c1.5-0.6,3.3-0.8,5.2-0.8            c1.9,0,3.6,0.2,5,0.7c1.3,0.5,2.5,1,3.3,1.6c0.9,0.6,1.6,1.1,2.1,1.6c0.6,0.5,0.8,0.5,0.8,0.5c0.1,0,0.3,0,0.4-0.3l0.7-1.3            c-1.6-1.5-3.4-2.7-5.3-3.5c-2.1-0.8-4.4-1.2-7-1.2c-2.3,0-4.4,0.4-6.2,1.1c-1.8,0.7-3.3,1.7-4.5,2.8c-1.2,1.2-2.1,2.5-2.8,4.1            c-0.6,1.5-0.9,3.1-0.9,4.8c0,2.1,0.4,3.9,1.1,5.3c0.7,1.4,1.6,2.6,2.8,3.5c1.2,0.9,2.5,1.7,4,2.3c1.5,0.6,3.1,1.2,4.7,1.7            c1.6,0.5,3.2,1,4.8,1.6c1.6,0.6,3,1.2,4.3,2.1c1.3,0.8,2.4,1.9,3.1,3.2c0.8,1.3,1.2,2.9,1.2,4.9c0,1.8-0.3,3.4-0.9,5            c-0.6,1.6-1.5,2.9-2.7,4c-1.2,1.1-2.6,2-4.3,2.7c-1.7,0.6-3.6,1-5.7,1c-1.5,0-2.9-0.2-4.2-0.5c-1.2-0.3-2.3-0.7-3.2-1.1            c-0.9-0.4-1.8-0.9-2.5-1.5c-0.7-0.5-1.3-1-1.8-1.4c-0.5-0.4-0.9-0.8-1.2-1.1c-0.3-0.3-0.5-0.3-0.5-0.3c-0.1,0-0.3,0-0.5,0.3            L138.4,71.3z"/>    </g>    <g>        <path class="st1" d="M226.7,51.6c0,4-0.6,7.6-1.8,10.9c-1.2,3.3-2.9,6.1-5.1,8.4c-2.2,2.3-4.8,4.1-7.8,5.4            c-3,1.3-6.4,1.9-10.1,1.9c-3.6,0-7-0.6-10-1.9c-3-1.3-5.6-3-7.8-5.4c-2.2-2.3-3.9-5.1-5.1-8.4c-1.2-3.3-1.8-6.9-1.8-10.9            c0-4,0.6-7.6,1.8-10.9c1.2-3.3,2.9-6.1,5.1-8.4c2.2-2.3,4.8-4.1,7.8-5.4c3-1.3,6.4-1.9,10-1.9c3.7,0,7.1,0.6,10.1,1.9            c3,1.3,5.6,3,7.8,5.4c2.2,2.3,3.9,5.1,5.1,8.4C226.1,44,226.7,47.6,226.7,51.6z M222.8,51.6c0-3.6-0.5-6.9-1.5-9.8            c-1-2.9-2.4-5.3-4.2-7.3c-1.8-2-4-3.5-6.6-4.6c-2.6-1.1-5.4-1.6-8.5-1.6c-3.1,0-5.9,0.5-8.5,1.6c-2.6,1.1-4.8,2.6-6.6,4.6            c-1.8,2-3.3,4.4-4.3,7.3c-1,2.9-1.5,6.1-1.5,9.8c0,3.6,0.5,6.9,1.5,9.8c1,2.9,2.4,5.3,4.3,7.3c1.8,2,4,3.5,6.6,4.6            c2.6,1.1,5.4,1.6,8.5,1.6c3.1,0,6-0.5,8.5-1.6c2.6-1,4.8-2.6,6.6-4.6c1.8-2,3.2-4.4,4.2-7.3C222.3,58.5,222.8,55.3,222.8,51.6z"/>        <path class="st2" d="M202,78.7c-3.7,0-7.2-0.7-10.2-1.9c-3.1-1.3-5.8-3.1-8-5.5c-2.2-2.4-4-5.2-5.2-8.6c-1.2-3.3-1.9-7.1-1.9-11.1            c0-4,0.6-7.8,1.9-11.1c1.2-3.3,3-6.2,5.2-8.6c2.2-2.4,4.9-4.2,8-5.5c3.1-1.3,6.5-2,10.2-2c3.8,0,7.2,0.7,10.3,1.9            c3.1,1.3,5.8,3.1,8,5.5c2.2,2.4,4,5.3,5.2,8.6c1.2,3.3,1.8,7,1.8,11.1c0,4.1-0.6,7.8-1.8,11.1c-1.2,3.3-3,6.2-5.2,8.6            c-2.2,2.4-4.9,4.2-8,5.5C209.2,78.1,205.7,78.7,202,78.7z M202,25.7c-3.5,0-6.8,0.6-9.8,1.9c-2.9,1.2-5.5,3-7.6,5.2            c-2.1,2.2-3.8,5-4.9,8.2c-1.2,3.2-1.8,6.8-1.8,10.7c0,3.9,0.6,7.5,1.8,10.7c1.2,3.2,2.8,5.9,4.9,8.2c2.1,2.2,4.7,4,7.6,5.2            c2.9,1.2,6.2,1.8,9.8,1.8c3.6,0,6.9-0.6,9.8-1.8c2.9-1.2,5.5-3,7.6-5.2c2.1-2.2,3.8-5,4.9-8.1c1.2-3.2,1.8-6.8,1.8-10.7            c0-3.9-0.6-7.5-1.8-10.7c-1.2-3.2-2.8-5.9-4.9-8.2c-2.1-2.2-4.7-4-7.6-5.2C208.9,26.3,205.6,25.7,202,25.7z"/>    </g>    <g>        <path class="st1" d="M256.4,74.9c2.5,0,4.7-0.4,6.7-1.3c2-0.9,3.6-2.1,5-3.6c1.4-1.5,2.4-3.4,3.1-5.4c0.7-2.1,1.1-4.3,1.1-6.8            V25.7h3.7v32.1c0,2.9-0.5,5.5-1.4,8c-0.9,2.5-2.2,4.6-3.9,6.5c-1.7,1.8-3.8,3.3-6.2,4.3c-2.4,1-5.2,1.6-8.2,1.6            c-3,0-5.8-0.5-8.2-1.6c-2.4-1.1-4.5-2.5-6.2-4.3c-1.7-1.8-3-4-3.9-6.5c-0.9-2.5-1.4-5.2-1.4-8V25.7h3.8v32c0,2.4,0.4,4.7,1.1,6.8            c0.7,2.1,1.8,3.9,3.1,5.4c1.4,1.5,3,2.7,5,3.6C251.6,74.5,253.9,74.9,256.4,74.9z"/>        <path class="st2" d="M256.4,78.8c-3.1,0-5.9-0.5-8.4-1.6c-2.5-1.1-4.7-2.6-6.4-4.5c-1.7-1.9-3.1-4.2-4-6.7            c-0.9-2.5-1.4-5.3-1.4-8.2V25.1h5v32.7c0,2.3,0.4,4.5,1,6.6c0.7,2,1.7,3.8,3,5.2c1.3,1.5,2.9,2.6,4.8,3.5c1.9,0.8,4,1.3,6.4,1.3            c2.4,0,4.6-0.4,6.4-1.2c1.9-0.8,3.5-2,4.8-3.5c1.3-1.5,2.3-3.2,3-5.2c0.7-2,1-4.2,1-6.6V25.1h5v32.7c0,2.9-0.5,5.7-1.4,8.2            c-0.9,2.5-2.3,4.8-4,6.7c-1.7,1.9-3.9,3.4-6.4,4.5C262.3,78.3,259.5,78.8,256.4,78.8z M237.3,26.3v31.5c0,2.8,0.4,5.4,1.3,7.8            c0.9,2.4,2.1,4.5,3.8,6.3c1.6,1.8,3.6,3.2,6,4.2c2.3,1,5,1.5,8,1.5c2.9,0,5.6-0.5,8-1.5c2.3-1,4.4-2.4,6-4.2            c1.6-1.8,2.9-3.9,3.8-6.3c0.9-2.4,1.3-5,1.3-7.8V26.3h-2.5v31.5c0,2.5-0.4,4.8-1.1,7c-0.7,2.2-1.8,4.1-3.3,5.7            c-1.4,1.6-3.2,2.9-5.2,3.8c-2,0.9-4.4,1.4-6.9,1.4c-2.6,0-4.9-0.5-6.9-1.4c-2-0.9-3.8-2.2-5.2-3.8c-1.4-1.6-2.5-3.5-3.2-5.7            c-0.7-2.1-1.1-4.5-1.1-7V26.3H237.3z"/>    </g>    <g>        <path class="st1" d="M297.5,51.3c1,0,0.9,0,0.9,0l2.2,0c2.3,0,4.4-0.3,6.2-0.8c1.8-0.6,3.4-1.3,4.6-2.4c1.3-1,2.2-2.3,2.9-3.7            c0.7-1.4,1-3.1,1-4.9c0-3.7-1.2-6.4-3.6-8.2c-2.4-1.8-5.9-2.7-10.6-2.7h-9.5v22.7v2.8v23.5h-3.7V25.7h13.2c6,0,10.5,1.2,13.4,3.5            c3,2.3,4.4,5.7,4.4,10.2c0,2-0.3,3.8-1,5.4c-0.7,1.6-1.7,3.1-3,4.3c-1.3,1.2-2.8,2.3-4.6,3c-1.8,0.8-3.9,1.3-6.1,1.6            c0.6,0.4,1.1,0.9,1.6,1.5l17.9,22.4h-3.3c-0.4,0-0.7-0.1-1-0.2c-0.3-0.1-0.6-0.4-0.8-0.7l-16.6-21c-0.4-0.5-0.9-0.9-1.3-1.1            c-0.5-0.2-3.4-0.3-4.4-0.3C296.3,51.6,296.7,51.3,297.5,51.3z"/>        <path class="st2" d="M325,78.2h-4.5c-0.5,0-0.9-0.1-1.3-0.3c-0.4-0.2-0.7-0.5-1-0.9l-16.6-21c-0.4-0.5-0.7-0.8-1.1-1            c-0.4-0.1-2.8-0.3-4.1-0.3h-0.6v-2.6c0-0.9,0.2-1.4,1.8-1.4c0.9,0,1,0,1,0l2.2,0c2.2,0,4.2-0.3,6-0.8c1.7-0.5,3.2-1.3,4.4-2.3            c1.2-1,2.1-2.1,2.7-3.5c0.6-1.4,0.9-2.9,0.9-4.6c0-3.5-1.1-6-3.4-7.7c-2.3-1.7-5.7-2.6-10.2-2.6h-8.9v48.9h-5V25.1h13.9            c6.1,0,10.7,1.2,13.8,3.6c3.1,2.4,4.7,6,4.7,10.7c0,2.1-0.4,4-1.1,5.7c-0.7,1.7-1.8,3.2-3.1,4.5c-1.3,1.3-3,2.3-4.8,3.2            c-1.5,0.6-3.1,1.1-4.9,1.4c0.2,0.2,0.4,0.4,0.6,0.7L325,78.2z M296.9,53.5c1.1,0,3.4,0.1,4,0.4c0.6,0.3,1.1,0.7,1.6,1.3l16.6,21            c0.2,0.3,0.4,0.5,0.6,0.6c0.2,0.1,0.4,0.2,0.7,0.2h2l-17.1-21.4c-0.4-0.6-0.9-1-1.4-1.3l-1.5-0.9l1.8-0.2c2.2-0.2,4.2-0.7,5.9-1.5            c1.7-0.8,3.2-1.7,4.5-2.9c1.2-1.2,2.2-2.5,2.8-4.1c0.6-1.6,1-3.3,1-5.2c0-4.3-1.4-7.5-4.2-9.7c-2.8-2.2-7.2-3.3-13-3.3h-12.6V77            h2.5V28h10.1c4.7,0,8.4,0.9,10.9,2.8c2.6,1.9,3.9,4.8,3.9,8.7c0,1.9-0.4,3.6-1,5.1c-0.7,1.5-1.7,2.8-3.1,3.9            c-1.3,1.1-2.9,1.9-4.8,2.5c-1.9,0.6-4,0.9-6.4,0.9l-2.2,0c-0.1,0-0.2,0-0.9,0C297.3,51.9,297,51.9,296.9,53.5z"/>    </g>    <g>        <path class="st1" d="M367.6,68.8c0.2,0,0.5,0.1,0.6,0.3l1.5,1.6c-1.1,1.1-2.2,2.2-3.5,3.1c-1.3,0.9-2.7,1.7-4.2,2.3            c-1.5,0.6-3.2,1.1-4.9,1.5c-1.8,0.4-3.8,0.5-5.9,0.5c-3.6,0-6.9-0.6-9.9-1.9c-3-1.3-5.6-3-7.7-5.4c-2.1-2.3-3.8-5.1-5-8.4            c-1.2-3.3-1.8-6.9-1.8-10.9c0-3.9,0.6-7.5,1.9-10.8c1.2-3.3,3-6,5.2-8.4c2.2-2.3,4.9-4.1,8-5.4c3.1-1.3,6.6-1.9,10.3-1.9            c1.9,0,3.6,0.1,5.2,0.4c1.6,0.3,3,0.7,4.4,1.2c1.4,0.5,2.6,1.2,3.8,2c1.2,0.8,2.4,1.7,3.5,2.7l-1.1,1.6c-0.2,0.3-0.5,0.4-0.9,0.4            c-0.2,0-0.5-0.1-0.8-0.4c-0.3-0.3-0.8-0.6-1.3-1c-0.5-0.4-1.2-0.8-1.9-1.2c-0.7-0.5-1.6-0.9-2.7-1.2c-1-0.4-2.2-0.7-3.6-1            c-1.3-0.3-2.9-0.4-4.6-0.4c-3.2,0-6.1,0.5-8.7,1.6c-2.6,1.1-4.9,2.6-6.8,4.7c-1.9,2-3.4,4.5-4.5,7.3s-1.6,6.1-1.6,9.7            c0,3.7,0.5,6.9,1.6,9.8c1.1,2.9,2.5,5.3,4.4,7.3c1.9,2,4.1,3.5,6.6,4.6c2.5,1.1,5.3,1.6,8.2,1.6c1.9,0,3.5-0.1,5-0.4            c1.5-0.2,2.8-0.6,4-1.1c1.2-0.5,2.4-1.1,3.4-1.8c1.1-0.7,2.1-1.5,3.1-2.5c0.1-0.1,0.2-0.2,0.3-0.2            C367.3,68.9,367.5,68.8,367.6,68.8z"/>        <path class="st2" d="M351.1,78.8c-3.7,0-7.1-0.7-10.1-1.9c-3.1-1.3-5.7-3.1-7.9-5.5c-2.2-2.4-3.9-5.2-5.1-8.6            c-1.2-3.3-1.8-7.1-1.8-11.1c0-4,0.6-7.7,1.9-11c1.3-3.3,3.1-6.2,5.3-8.6c2.3-2.4,5.1-4.3,8.2-5.6c3.2-1.3,6.7-2,10.6-2            c1.9,0,3.7,0.1,5.3,0.4c1.6,0.3,3.1,0.7,4.5,1.2c1.4,0.5,2.7,1.2,3.9,2c1.2,0.8,2.4,1.7,3.6,2.8l0.4,0.4l-1.4,2.1            c-0.2,0.3-0.6,0.7-1.4,0.7c-0.4,0-0.7-0.2-1.2-0.5c-0.3-0.3-0.8-0.6-1.3-0.9c-0.5-0.4-1.1-0.8-1.9-1.2c-0.7-0.4-1.6-0.8-2.6-1.2            c-1-0.4-2.2-0.7-3.5-0.9c-1.3-0.2-2.8-0.4-4.5-0.4c-3.1,0-5.9,0.5-8.5,1.6c-2.5,1.1-4.8,2.6-6.6,4.5c-1.8,1.9-3.3,4.3-4.3,7.1            c-1,2.8-1.6,6-1.6,9.4c0,3.6,0.5,6.8,1.5,9.6c1,2.8,2.4,5.2,4.2,7.1c1.8,1.9,3.9,3.4,6.4,4.4c2.4,1,5.1,1.5,8,1.5            c1.8,0,3.5-0.1,4.9-0.4c1.4-0.2,2.7-0.6,3.9-1.1c1.2-0.5,2.3-1.1,3.3-1.7c1-0.7,2-1.5,3-2.4c0.2-0.2,0.3-0.2,0.5-0.3            c0.5-0.3,1.3-0.2,1.7,0.3l1.9,2l-0.4,0.4c-1.1,1.2-2.3,2.2-3.6,3.2c-1.3,0.9-2.7,1.8-4.3,2.4c-1.5,0.7-3.2,1.2-5.1,1.5            C355.3,78.6,353.3,78.8,351.1,78.8z M352.2,25.7c-3.7,0-7.1,0.6-10.1,1.9c-3,1.2-5.7,3-7.8,5.3c-2.2,2.3-3.9,5-5.1,8.2            c-1.2,3.2-1.8,6.7-1.8,10.6c0,3.9,0.6,7.5,1.8,10.7c1.2,3.2,2.8,5.9,4.9,8.2c2.1,2.2,4.6,4,7.5,5.2c2.9,1.2,6.1,1.8,9.6,1.8            c2.1,0,4-0.2,5.8-0.5c1.7-0.3,3.4-0.8,4.8-1.5c1.5-0.6,2.8-1.4,4-2.3c1.1-0.8,2.1-1.7,3-2.6l-1.1-1.2c-0.1-0.1-0.2-0.1-0.3,0            c-0.1,0-0.2,0.1-0.3,0.2c-1,0.9-2.1,1.8-3.2,2.5c-1.1,0.7-2.3,1.4-3.5,1.9c-1.3,0.5-2.7,0.9-4.1,1.1c-1.5,0.2-3.2,0.4-5.1,0.4            c-3,0-5.9-0.6-8.5-1.6c-2.6-1.1-4.9-2.7-6.8-4.7c-1.9-2-3.4-4.6-4.5-7.5c-1.1-2.9-1.6-6.3-1.6-10c0-3.6,0.5-6.9,1.6-9.9            c1.1-2.9,2.6-5.5,4.6-7.5c2-2.1,4.3-3.7,7-4.8c2.7-1.1,5.7-1.7,8.9-1.7c1.7,0,3.3,0.1,4.7,0.4c1.4,0.3,2.6,0.6,3.7,1            c1.1,0.4,2,0.8,2.8,1.3c0.8,0.5,1.4,0.9,1.9,1.3c0.5,0.4,1,0.7,1.3,1c0.3,0.3,0.5,0.3,0.5,0.3c0.3,0,0.4-0.1,0.4-0.2l0.8-1.2            c-1-0.9-2-1.6-3-2.3c-1.2-0.8-2.4-1.4-3.7-1.9c-1.3-0.5-2.8-0.9-4.3-1.2C355.7,25.9,354,25.7,352.2,25.7z"/>    </g>    <g>        <path class="st1" d="M410.3,25.7v3.1H383v21h22.7v3H383v21.6h27.3v3.1h-31.1V25.7H410.3z"/>        <path class="st2" d="M410.9,78.2h-32.3V25.1h32.3v4.3h-27.3v19.7h22.7v4.3h-22.7v20.4h27.3V78.2z M379.8,77h29.9v-1.9h-27.3V52.2            h22.7v-1.8h-22.7V28.2h27.3v-1.9h-29.9V77z"/>    </g>    <g>        <path class="st1" d="M456.8,25.1V33h-23.5v15.7h19.8v7.9h-19.8v21.6h-9.9v-53H456.8z"/>    </g>    <g>        <path class="st1" d="M514.3,51.6c0,3.9-0.6,7.5-1.9,10.8c-1.3,3.3-3.1,6.2-5.5,8.6c-2.3,2.4-5.2,4.3-8.5,5.7c-3.3,1.4-7,2-11,2            c-4,0-7.7-0.7-11-2c-3.3-1.4-6.1-3.2-8.5-5.7c-2.4-2.4-4.2-5.3-5.5-8.6s-1.9-6.9-1.9-10.8s0.6-7.5,1.9-10.8            c1.3-3.3,3.1-6.2,5.5-8.6c2.4-2.4,5.2-4.3,8.5-5.7c3.3-1.4,7-2,11-2c4,0,7.7,0.7,11,2.1c3.3,1.4,6.1,3.3,8.5,5.7            c2.3,2.4,4.2,5.3,5.5,8.6C513.6,44.1,514.3,47.7,514.3,51.6z M504.2,51.6c0-2.9-0.4-5.5-1.2-7.8c-0.8-2.3-1.9-4.3-3.3-5.9            c-1.4-1.6-3.2-2.8-5.3-3.7c-2.1-0.9-4.4-1.3-7-1.3c-2.6,0-4.9,0.4-7,1.3c-2.1,0.9-3.8,2.1-5.3,3.7c-1.5,1.6-2.6,3.6-3.4,5.9            c-0.8,2.3-1.2,4.9-1.2,7.8s0.4,5.5,1.2,7.8c0.8,2.3,1.9,4.3,3.4,5.9c1.5,1.6,3.2,2.8,5.3,3.7c2.1,0.9,4.4,1.3,7,1.3            c2.6,0,4.9-0.4,7-1.3c2.1-0.9,3.8-2.1,5.3-3.7c1.4-1.6,2.5-3.6,3.3-5.9C503.8,57.1,504.2,54.5,504.2,51.6z"/>    </g>    <g>        <path class="st1" d="M534.9,50.4l2.3,0c1.9,0,3.5-0.2,4.9-0.7c1.4-0.5,2.5-1.1,3.4-1.9c0.9-0.8,1.6-1.8,2-2.9            c0.4-1.1,0.7-2.4,0.7-3.7c0-2.7-0.9-4.8-2.7-6.2c-1.8-1.4-4.5-2.2-8.1-2.2H531v17.6v7.1v20.7h-9.9v-53h16.2c3.6,0,6.7,0.4,9.3,1.1            c2.6,0.7,4.7,1.8,6.3,3.1c1.6,1.3,2.9,3,3.6,4.8c0.8,1.9,1.2,3.9,1.2,6.2c0,1.8-0.3,3.5-0.8,5.1c-0.5,1.6-1.3,3-2.3,4.3            c-1,1.3-2.2,2.4-3.7,3.4c-1.5,1-3.1,1.8-5,2.3c1.2,0.7,2.3,1.7,3.2,3l13.3,19.6h-8.9c-0.9,0-1.6-0.2-2.2-0.5            c-0.6-0.3-1.1-0.8-1.5-1.5c0,0-11.1-17-11.1-17c-0.3-0.4-0.9-1.3-1.5-1.4c-1.2,0-2.4,0-3.5,0c0,0,0-6,0-6.4            C533.8,50.4,534.9,50.4,534.9,50.4z"/>    </g>    <g>        <path class="st1" d="M591.4,70.9c2.2,0,4.2-0.2,5.8-0.6c1.6-0.4,3.2-1,4.7-1.7v-12h-6.6c-0.6,0-1.1-0.2-1.5-0.5            c-0.4-0.4-0.6-0.8-0.6-1.3v-5.6h17.6V73c-1.3,1-2.7,1.8-4.2,2.5c-1.5,0.7-3,1.3-4.7,1.8c-1.7,0.5-3.4,0.8-5.3,1            c-1.9,0.2-3.9,0.3-6.1,0.3c-3.9,0-7.4-0.7-10.7-2c-3.3-1.3-6.1-3.2-8.4-5.6c-2.4-2.4-4.2-5.3-5.6-8.6c-1.3-3.3-2-7-2-10.9            c0-4,0.6-7.6,1.9-11c1.3-3.3,3.1-6.2,5.5-8.6c2.4-2.4,5.3-4.3,8.7-5.6c3.4-1.3,7.2-2,11.4-2c4.3,0,8.1,0.6,11.2,1.9            c3.2,1.3,5.8,3,8,5l-2.9,4.5c-0.6,0.9-1.3,1.4-2.2,1.4c-0.6,0-1.2-0.2-1.8-0.6c-0.8-0.5-1.6-0.9-2.4-1.4c-0.8-0.5-1.7-0.9-2.7-1.2            c-1-0.3-2.1-0.6-3.3-0.8c-1.2-0.2-2.7-0.3-4.3-0.3c-2.6,0-5,0.4-7.1,1.3c-2.1,0.9-3.9,2.1-5.4,3.8c-1.5,1.6-2.6,3.6-3.4,5.9            c-0.8,2.3-1.2,4.9-1.2,7.7c0,3.1,0.4,5.8,1.3,8.2c0.9,2.4,2.1,4.4,3.6,6s3.4,2.9,5.5,3.8S588.9,70.9,591.4,70.9z"/>    </g>    <g>        <path class="st1" d="M645.7,56.8h-16.1v13.4H653v7.9h-33.4v-53H653V33h-23.5v16.3H648v5.8C648,55.1,647.9,56.8,645.7,56.8z"/>    </g></g></svg>
            </a>
            <div class="links">
                

    
        <div class="nav-dropdown">
            <a href="/directory" title="Browse">Open Source Software</a>

...